* XSpice netlist created from SPICE and liberty sources by spi2xspice.py
*SPICE netlist created from BLIF module NRISC_PC_ctrl by blif2BSpice
.subckt NRISC_PC_ctrl a_vdd a_gnd a_IDATA_CORE_out_0_ a_IDATA_CORE_out_1_ a_IDATA_CORE_out_2_ a_IDATA_CORE_out_3_ a_IDATA_CORE_out_4_ a_IDATA_CORE_out_5_ a_IDATA_CORE_out_6_ a_IDATA_CORE_out_7_ a_IDATA_CORE_out_8_ a_IDATA_CORE_out_9_ a_IDATA_CORE_out_10_ a_IDATA_CORE_out_11_ a_IDATA_CORE_out_12_ a_IDATA_CORE_out_13_ a_IDATA_CORE_out_14_ a_IDATA_CORE_out_15_ a_CORE_PC_ctrl_0_ a_CORE_PC_ctrl_1_ a_CORE_STACK_ctrl_0_ a_CORE_STACK_ctrl_1_ a_ULA_OUT_0_ a_ULA_OUT_1_ a_ULA_OUT_2_ a_ULA_OUT_3_ a_ULA_OUT_4_ a_ULA_OUT_5_ a_ULA_OUT_6_ a_ULA_OUT_7_ a_ULA_OUT_8_ a_ULA_OUT_9_ a_INTERRUPT_ch_0_ a_INTERRUPT_ch_1_ a_INTERRUPT_ch_2_ a_INTERRUPT_ch_3_ a_INTERRUPT_ch_4_ a_INTERRUPT_ch_5_ a_INTERRUPT_ch_6_ a_INTERRUPT_ch_7_ a_INTERRUPT_flag a_clk a_rst a_IDATA_CORE_addr_0_ a_IDATA_CORE_addr_1_ a_IDATA_CORE_addr_2_ a_IDATA_CORE_addr_3_ a_IDATA_CORE_addr_4_ a_IDATA_CORE_addr_5_ a_IDATA_CORE_addr_6_ a_IDATA_CORE_addr_7_ a_IDATA_CORE_addr_8_ a_IDATA_CORE_addr_9_ a_IDATA_clk a_CORE_InstructionIN_0_ a_CORE_InstructionIN_1_ a_CORE_InstructionIN_2_ a_CORE_InstructionIN_3_ a_CORE_InstructionIN_4_ a_CORE_InstructionIN_5_ a_CORE_InstructionIN_6_ a_CORE_InstructionIN_7_ a_CORE_InstructionIN_8_ a_CORE_InstructionIN_9_ a_CORE_InstructionIN_10_ a_CORE_InstructionIN_11_ a_CORE_InstructionIN_12_ a_CORE_InstructionIN_13_ a_CORE_InstructionIN_14_ a_CORE_InstructionIN_15_ a_REG_R0_0_ a_REG_R0_1_ a_REG_R0_2_ a_REG_R0_3_ a_REG_R0_4_ a_REG_R0_5_ a_REG_R0_6_ a_REG_R0_7_ a_REG_R0_8_ a_REG_R0_9_
AAND2X2_1 [PC_pointer_0_ PC_pointer_1_] _1012_ d_lut_AND2X2
AAND2X2_2 [_1314_ _1308_] _1315_ d_lut_AND2X2
AAND2X2_3 [_1359_ _1360_] _1361_ d_lut_AND2X2
AAND2X2_4 [_1363_ _1362_] _1364_ d_lut_AND2X2
AAND2X2_5 [_1364_ _1361_] _1365_ d_lut_AND2X2
AAND2X2_6 [_1274_ _992__bF_buf0] _1420_ d_lut_AND2X2
AAND2X2_7 [_1434_ _1430_] _1435_ d_lut_AND2X2
AAND2X2_8 [_1274_ _1022_] _1494_ d_lut_AND2X2
AAND2X2_9 [_1508_ _1505_] _1509_ d_lut_AND2X2
AAND2X2_10 [_1274_ _1023_] _43_ d_lut_AND2X2
AAND2X2_11 [_55_ _52_] _56_ d_lut_AND2X2
AAND2X2_12 [PC_pointer_2_ PC_pointer_3_] _1079_ d_lut_AND2X2
AAND2X2_13 [_83_ _86_] _87_ d_lut_AND2X2
AAND2X2_14 [_75_ _1095__bF_buf2] _88_ d_lut_AND2X2
AAND2X2_15 [_89_ _91_] _92_ d_lut_AND2X2
AAND2X2_16 [_1274_ _1104_] _139_ d_lut_AND2X2
AAND2X2_17 [_151_ _148_] _152_ d_lut_AND2X2
AAND2X2_18 [_1274_ _1003_] _210_ d_lut_AND2X2
AAND2X2_19 [_222_ _219_] _223_ d_lut_AND2X2
AAND2X2_20 [_1274_ _997__bF_buf0] _282_ d_lut_AND2X2
AAND2X2_21 [_294_ _291_] _295_ d_lut_AND2X2
AAND2X2_22 [_1274_ _1000__bF_buf0] _355_ d_lut_AND2X2
AAND2X2_23 [_1192_ _1193_] _1194_ d_lut_AND2X2
AAND2X2_24 [_367_ _364_] _368_ d_lut_AND2X2
AAND2X2_25 [_1274_ _1004__bF_buf1] _428_ d_lut_AND2X2
AAND2X2_26 [_440_ _437_] _441_ d_lut_AND2X2
AAND2X2_27 [_1274_ _1026_] _499_ d_lut_AND2X2
AAND2X2_28 [_511_ _508_] _512_ d_lut_AND2X2
AAND2X2_29 [_1274_ _987__bF_buf1] _572_ d_lut_AND2X2
AAND2X2_30 [_584_ _581_] _585_ d_lut_AND2X2
AAND2X2_31 [_1274_ _984_] _645_ d_lut_AND2X2
AAND2X2_32 [_657_ _654_] _658_ d_lut_AND2X2
AAND2X2_33 [_1274_ _1196_] _717_ d_lut_AND2X2
AAND2X2_34 [_1225_ _1226_] _1227_ d_lut_AND2X2
AAND2X2_35 [_729_ _726_] _730_ d_lut_AND2X2
AAND2X2_36 [_1274_ _1191_] _791_ d_lut_AND2X2
AAND2X2_37 [_803_ _800_] _804_ d_lut_AND2X2
AAND2X2_38 [_1274_ _990__bF_buf1] _864_ d_lut_AND2X2
AAND2X2_39 [_876_ _873_] _877_ d_lut_AND2X2
AAND2X2_40 [_1274_ _1025_] _935_ d_lut_AND2X2
AAND2X2_41 [_947_ _944_] _948_ d_lut_AND2X2
AAND2X2_42 [_1229_ _1230_] _1231_ d_lut_AND2X2
AAND2X2_43 [_1274_ _1102__bF_buf1] _1275_ d_lut_AND2X2
AAND2X2_44 [_1042_ ULA_OUT_6_] _1280_ d_lut_AND2X2
AAND2X2_45 [_1297_ _1296_] _1298_ d_lut_AND2X2
AAND2X2_46 [_1042_ ULA_OUT_7_] _1313_ d_lut_AND2X2
AAOI21X1_1 [_1212_ _1211_ rst_bF_buf0] _1213_ d_lut_AOI21X1
AAOI21X1_2 [_1430_ _1431_ _1307_] _1432_ d_lut_AOI21X1
AAOI21X1_3 [_1038__bF_buf2 _1506_ _1510_] _1511_ d_lut_AOI21X1
AAOI21X1_4 [_1040_ _1022_ _1037_] _1516_ d_lut_AOI21X1
AAOI21X1_5 [_1038__bF_buf2 _53_ _57_] _58_ d_lut_AOI21X1
AAOI21X1_6 [_1040_ _1023_ _1037_] _63_ d_lut_AOI21X1
AAOI21X1_7 [_1037_ _70_ _72_] _73_ d_lut_AOI21X1
AAOI21X1_8 [PC_pointer_2_ _1012_ _981_] _90_ d_lut_AOI21X1
AAOI21X1_9 [_1038__bF_buf4 _131_ _135_] _136_ d_lut_AOI21X1
AAOI21X1_10 [_1038__bF_buf9 _149_ _153_] _154_ d_lut_AOI21X1
AAOI21X1_11 [_1040_ _1104_ _1037_] _159_ d_lut_AOI21X1
AAOI21X1_12 [_1272_ _1543__6_ _1273_] _1274_ d_lut_AOI21X1
AAOI21X1_13 [_1038__bF_buf2 _220_ _224_] _225_ d_lut_AOI21X1
AAOI21X1_14 [_1038__bF_buf10 _292_ _296_] _297_ d_lut_AOI21X1
AAOI21X1_15 [_997__bF_buf0 _1343_ _299_] _300_ d_lut_AOI21X1
AAOI21X1_16 [_353_ _359_ _1311__bF_buf3] _360_ d_lut_AOI21X1
AAOI21X1_17 [_1038__bF_buf2 _358_ _360_] _361_ d_lut_AOI21X1
AAOI21X1_18 [_1038__bF_buf2 _365_ _369_] _370_ d_lut_AOI21X1
AAOI21X1_19 [_1000__bF_buf2 _1343_ _372_] _373_ d_lut_AOI21X1
AAOI21X1_20 [_1040_ _1000__bF_buf0 _1037_] _375_ d_lut_AOI21X1
AAOI21X1_21 [_1038__bF_buf3 _420_ _424_] _425_ d_lut_AOI21X1
AAOI21X1_22 [_1038__bF_buf2 _438_ _442_] _443_ d_lut_AOI21X1
AAOI21X1_23 [_1308_ _1309_ _1307_] _1310_ d_lut_AOI21X1
AAOI21X1_24 [_1004__bF_buf3 _1343_ _445_] _446_ d_lut_AOI21X1
AAOI21X1_25 [_1040_ _1004__bF_buf3 _1037_] _448_ d_lut_AOI21X1
AAOI21X1_26 [_1038__bF_buf2 _509_ _513_] _514_ d_lut_AOI21X1
AAOI21X1_27 [_1026_ _1343_ _516_] _517_ d_lut_AOI21X1
AAOI21X1_28 [_570_ _576_ _1311__bF_buf1] _577_ d_lut_AOI21X1
AAOI21X1_29 [_1038__bF_buf9 _575_ _577_] _578_ d_lut_AOI21X1
AAOI21X1_30 [_1038__bF_buf9 _582_ _586_] _587_ d_lut_AOI21X1
AAOI21X1_31 [_987__bF_buf0 _1343_ _589_] _590_ d_lut_AOI21X1
AAOI21X1_32 [_1038__bF_buf9 _655_ _659_] _660_ d_lut_AOI21X1
AAOI21X1_33 [_1038__bF_buf9 _727_ _731_] _732_ d_lut_AOI21X1
AAOI21X1_34 [PC_STACK_1__8_ _990__bF_buf3 _1330_] _1331_ d_lut_AOI21X1
AAOI21X1_35 [_1196_ _1343_ _734_] _735_ d_lut_AOI21X1
AAOI21X1_36 [_1038__bF_buf4 _783_ _787_] _788_ d_lut_AOI21X1
AAOI21X1_37 [_1038__bF_buf9 _801_ _805_] _806_ d_lut_AOI21X1
AAOI21X1_38 [_1040_ _1191_ _1037_] _811_ d_lut_AOI21X1
AAOI21X1_39 [_1038__bF_buf4 _856_ _860_] _861_ d_lut_AOI21X1
AAOI21X1_40 [_1038__bF_buf9 _874_ _878_] _879_ d_lut_AOI21X1
AAOI21X1_41 [_990__bF_buf3 _1343_ _881_] _882_ d_lut_AOI21X1
AAOI21X1_42 [_1040_ _990__bF_buf3 _1037_] _884_ d_lut_AOI21X1
AAOI21X1_43 [_1038__bF_buf5 _945_ _949_] _950_ d_lut_AOI21X1
AAOI21X1_44 [_1040_ _1025_ _1037_] _955_ d_lut_AOI21X1
AAOI21X1_45 [PC_STACK_6__8_ _1102__bF_buf1 _1334_] _1335_ d_lut_AOI21X1
AAOI21X1_46 [_1040_ _963_ rst_bF_buf0] _17_ d_lut_AOI21X1
AAOI21X1_47 [_1341_ _1543__8_ _1342_] _1343_ d_lut_AOI21X1
AAOI21X1_48 [_1102__bF_buf0 _1343_ _1340_] _1344_ d_lut_AOI21X1
AAOI21X1_49 [_1040_ _1102__bF_buf0 _1037_] _1347_ d_lut_AOI21X1
AAOI21X1_50 [_1367_ _1368_ rst_bF_buf1] _1369_ d_lut_AOI21X1
AAOI22X1_1 [_984_ PC_STACK_4__0_ PC_STACK_5__0_ _987__bF_buf3] _988_ d_lut_AOI22X1
AAOI22X1_2 [_997__bF_buf2 PC_STACK_9__1_ PC_STACK_10__1_ _1000__bF_buf1] _1050_ d_lut_AOI22X1
AAOI22X1_3 [PC_STACK_15__0_ _1041__bF_buf2 _171_ _1045__bF_buf7] _172_ d_lut_AOI22X1
AAOI22X1_4 [PC_STACK_15__1_ _1041__bF_buf7 _178_ _1038__bF_buf1] _179_ d_lut_AOI22X1
AAOI22X1_5 [PC_STACK_15__2_ _1041__bF_buf7 _185_ _1038__bF_buf1] _186_ d_lut_AOI22X1
AAOI22X1_6 [PC_STACK_15__3_ _1041__bF_buf8 _192_ _1045__bF_buf0] _193_ d_lut_AOI22X1
AAOI22X1_7 [PC_STACK_15__4_ _1041__bF_buf7 _199_ _1045__bF_buf8] _200_ d_lut_AOI22X1
AAOI22X1_8 [PC_STACK_15__5_ _1041__bF_buf7 _206_ _1045__bF_buf8] _207_ d_lut_AOI22X1
AAOI22X1_9 [_213_ _1038__bF_buf10 _1045__bF_buf2 _215_] _216_ d_lut_AOI22X1
AAOI22X1_10 [_1045__bF_buf1 _229_ _231_ PC_STACK_15__8_] _232_ d_lut_AOI22X1
AAOI22X1_11 [_1045__bF_buf1 _236_ _231_ PC_STACK_15__9_] _237_ d_lut_AOI22X1
AAOI22X1_12 [PC_STACK_9__0_ _1041__bF_buf5 _243_ _1045__bF_buf3] _244_ d_lut_AOI22X1
AAOI22X1_13 [PC_STACK_15__1_ _1003_ _1004__bF_buf0 PC_STACK_8__1_] _1051_ d_lut_AOI22X1
AAOI22X1_14 [PC_STACK_9__1_ _1041__bF_buf2 _250_ _1038__bF_buf0] _251_ d_lut_AOI22X1
AAOI22X1_15 [PC_STACK_9__2_ _1041__bF_buf0 _257_ _1038__bF_buf10] _258_ d_lut_AOI22X1
AAOI22X1_16 [PC_STACK_9__3_ _1041__bF_buf2 _264_ _1045__bF_buf7] _265_ d_lut_AOI22X1
AAOI22X1_17 [PC_STACK_9__4_ _1041__bF_buf2 _271_ _1045__bF_buf7] _272_ d_lut_AOI22X1
AAOI22X1_18 [PC_STACK_9__5_ _1041__bF_buf5 _278_ _1045__bF_buf3] _279_ d_lut_AOI22X1
AAOI22X1_19 [_285_ _1038__bF_buf6 _1045__bF_buf3 _287_] _288_ d_lut_AOI22X1
AAOI22X1_20 [_1045__bF_buf2 _301_ _303_ PC_STACK_9__8_] _304_ d_lut_AOI22X1
AAOI22X1_21 [_1045__bF_buf2 _308_ _303_ PC_STACK_9__9_] _309_ d_lut_AOI22X1
AAOI22X1_22 [PC_STACK_10__0_ _1041__bF_buf5 _316_ _1045__bF_buf3] _317_ d_lut_AOI22X1
AAOI22X1_23 [PC_STACK_10__1_ _1041__bF_buf5 _323_ _1038__bF_buf0] _324_ d_lut_AOI22X1
AAOI22X1_24 [_1022_ PC_STACK_13__1_ PC_STACK_14__1_ _1023_] _1060_ d_lut_AOI22X1
AAOI22X1_25 [PC_STACK_10__2_ _1041__bF_buf5 _330_ _1038__bF_buf6] _331_ d_lut_AOI22X1
AAOI22X1_26 [PC_STACK_10__3_ _1041__bF_buf0 _337_ _1045__bF_buf1] _338_ d_lut_AOI22X1
AAOI22X1_27 [PC_STACK_10__4_ _1041__bF_buf5 _344_ _1045__bF_buf3] _345_ d_lut_AOI22X1
AAOI22X1_28 [PC_STACK_10__5_ _1041__bF_buf5 _351_ _1045__bF_buf3] _352_ d_lut_AOI22X1
AAOI22X1_29 [PC_STACK_10__8_ _375_ _374_ _1045__bF_buf2] _376_ d_lut_AOI22X1
AAOI22X1_30 [PC_STACK_10__9_ _375_ _380_ _1045__bF_buf2] _381_ d_lut_AOI22X1
AAOI22X1_31 [PC_STACK_8__0_ _1041__bF_buf7 _387_ _1045__bF_buf7] _388_ d_lut_AOI22X1
AAOI22X1_32 [PC_STACK_8__1_ _1041__bF_buf2 _394_ _1038__bF_buf0] _395_ d_lut_AOI22X1
AAOI22X1_33 [PC_STACK_8__2_ _1041__bF_buf7 _401_ _1038__bF_buf1] _402_ d_lut_AOI22X1
AAOI22X1_34 [PC_STACK_8__3_ _1041__bF_buf2 _408_ _1045__bF_buf7] _409_ d_lut_AOI22X1
AAOI22X1_35 [PC_STACK_11__1_ _1026_ _1025_ PC_STACK_0__1_] _1061_ d_lut_AOI22X1
AAOI22X1_36 [PC_STACK_8__4_ _1041__bF_buf5 _415_ _1045__bF_buf3] _416_ d_lut_AOI22X1
AAOI22X1_37 [_431_ _1038__bF_buf6 _1045__bF_buf2 _433_] _434_ d_lut_AOI22X1
AAOI22X1_38 [_1045__bF_buf2 _447_ _448_ PC_STACK_8__8_] _449_ d_lut_AOI22X1
AAOI22X1_39 [_1045__bF_buf2 _453_ _448_ PC_STACK_8__9_] _454_ d_lut_AOI22X1
AAOI22X1_40 [PC_STACK_11__0_ _1041__bF_buf7 _460_ _1045__bF_buf7] _461_ d_lut_AOI22X1
AAOI22X1_41 [PC_STACK_11__1_ _1041__bF_buf7 _467_ _1038__bF_buf1] _468_ d_lut_AOI22X1
AAOI22X1_42 [PC_STACK_11__2_ _1041__bF_buf2 _474_ _1038__bF_buf0] _475_ d_lut_AOI22X1
AAOI22X1_43 [PC_STACK_11__3_ _1041__bF_buf7 _481_ _1045__bF_buf8] _482_ d_lut_AOI22X1
AAOI22X1_44 [PC_STACK_11__4_ _1041__bF_buf5 _488_ _1045__bF_buf3] _489_ d_lut_AOI22X1
AAOI22X1_45 [PC_STACK_11__5_ _1041__bF_buf7 _495_ _1045__bF_buf7] _496_ d_lut_AOI22X1
AAOI22X1_46 [_1007_ _1029_ _1053_ _1063_] _1065_ d_lut_AOI22X1
AAOI22X1_47 [_502_ _1038__bF_buf6 _1045__bF_buf3 _504_] _505_ d_lut_AOI22X1
AAOI22X1_48 [_1045__bF_buf2 _518_ _520_ PC_STACK_11__8_] _521_ d_lut_AOI22X1
AAOI22X1_49 [_1045__bF_buf2 _525_ _520_ PC_STACK_11__9_] _526_ d_lut_AOI22X1
AAOI22X1_50 [PC_STACK_5__0_ _1041__bF_buf4 _533_ _1045__bF_buf1] _534_ d_lut_AOI22X1
AAOI22X1_51 [PC_STACK_5__1_ _1041__bF_buf4 _540_ _1038__bF_buf10] _541_ d_lut_AOI22X1
AAOI22X1_52 [PC_STACK_5__2_ _1041__bF_buf0 _547_ _1038__bF_buf10] _548_ d_lut_AOI22X1
AAOI22X1_53 [PC_STACK_5__3_ _1041__bF_buf4 _554_ _1045__bF_buf0] _555_ d_lut_AOI22X1
AAOI22X1_54 [PC_STACK_5__4_ _1041__bF_buf3 _561_ _1045__bF_buf0] _562_ d_lut_AOI22X1
AAOI22X1_55 [PC_STACK_5__5_ _1041__bF_buf3 _568_ _1045__bF_buf0] _569_ d_lut_AOI22X1
AAOI22X1_56 [_1045__bF_buf0 _591_ _593_ PC_STACK_5__8_] _594_ d_lut_AOI22X1
AAOI22X1_57 [PC_STACK_6__1_ _1041__bF_buf1 _1074_ _1038__bF_buf8] _1075_ d_lut_AOI22X1
AAOI22X1_58 [_1045__bF_buf0 _599_ _593_ PC_STACK_5__9_] _600_ d_lut_AOI22X1
AAOI22X1_59 [PC_STACK_4__0_ _1041__bF_buf9 _606_ _1045__bF_buf6] _607_ d_lut_AOI22X1
AAOI22X1_60 [PC_STACK_4__1_ _1041__bF_buf4 _613_ _1038__bF_buf10] _614_ d_lut_AOI22X1
AAOI22X1_61 [PC_STACK_4__2_ _1041__bF_buf1 _620_ _1038__bF_buf7] _621_ d_lut_AOI22X1
AAOI22X1_62 [PC_STACK_4__3_ _1041__bF_buf2 _627_ _1045__bF_buf6] _628_ d_lut_AOI22X1
AAOI22X1_63 [PC_STACK_4__4_ _1041__bF_buf1 _634_ _1045__bF_buf4] _635_ d_lut_AOI22X1
AAOI22X1_64 [PC_STACK_4__5_ _1041__bF_buf9 _641_ _1045__bF_buf5] _642_ d_lut_AOI22X1
AAOI22X1_65 [_648_ _1038__bF_buf5 _1045__bF_buf0 _650_] _651_ d_lut_AOI22X1
AAOI22X1_66 [_1045__bF_buf5 _664_ _666_ PC_STACK_4__8_] _667_ d_lut_AOI22X1
AAOI22X1_67 [_1045__bF_buf5 _671_ _666_ PC_STACK_4__9_] _672_ d_lut_AOI22X1
AAOI22X1_68 [_984_ PC_STACK_4__2_ PC_STACK_9__2_ _997__bF_buf2] _1088_ d_lut_AOI22X1
AAOI22X1_69 [PC_STACK_3__0_ _1041__bF_buf1 _678_ _1045__bF_buf9] _679_ d_lut_AOI22X1
AAOI22X1_70 [PC_STACK_3__1_ _1041__bF_buf1 _685_ _1038__bF_buf8] _686_ d_lut_AOI22X1
AAOI22X1_71 [PC_STACK_3__2_ _1041__bF_buf6 _692_ _1038__bF_buf1] _693_ d_lut_AOI22X1
AAOI22X1_72 [PC_STACK_3__3_ _1041__bF_buf10 _699_ _1045__bF_buf9] _700_ d_lut_AOI22X1
AAOI22X1_73 [PC_STACK_3__4_ _1041__bF_buf10 _706_ _1045__bF_buf9] _707_ d_lut_AOI22X1
AAOI22X1_74 [PC_STACK_3__5_ _1041__bF_buf1 _713_ _1045__bF_buf9] _714_ d_lut_AOI22X1
AAOI22X1_75 [_720_ _1038__bF_buf9 _1045__bF_buf0 _722_] _723_ d_lut_AOI22X1
AAOI22X1_76 [_1045__bF_buf5 _736_ _738_ PC_STACK_3__8_] _739_ d_lut_AOI22X1
AAOI22X1_77 [_1045__bF_buf10 _743_ _738_ PC_STACK_3__9_] _744_ d_lut_AOI22X1
AAOI22X1_78 [PC_STACK_2__0_ _1041__bF_buf1 _750_ _1045__bF_buf4] _751_ d_lut_AOI22X1
AAOI22X1_79 [PC_STACK_12__2_ _992__bF_buf2 _987__bF_buf3 PC_STACK_5__2_] _1089_ d_lut_AOI22X1
AAOI22X1_80 [PC_STACK_2__1_ _1041__bF_buf6 _757_ _1038__bF_buf7] _758_ d_lut_AOI22X1
AAOI22X1_81 [PC_STACK_2__2_ _1041__bF_buf6 _764_ _1038__bF_buf7] _765_ d_lut_AOI22X1
AAOI22X1_82 [PC_STACK_2__3_ _1041__bF_buf1 _771_ _1045__bF_buf4] _772_ d_lut_AOI22X1
AAOI22X1_83 [PC_STACK_2__4_ _1041__bF_buf1 _778_ _1045__bF_buf4] _779_ d_lut_AOI22X1
AAOI22X1_84 [_794_ _1038__bF_buf9 _1045__bF_buf5 _796_] _797_ d_lut_AOI22X1
AAOI22X1_85 [_1045__bF_buf10 _810_ _811_ PC_STACK_2__8_] _812_ d_lut_AOI22X1
AAOI22X1_86 [_1045__bF_buf10 _816_ _811_ PC_STACK_2__9_] _817_ d_lut_AOI22X1
AAOI22X1_87 [PC_STACK_1__0_ _1041__bF_buf9 _823_ _1045__bF_buf6] _824_ d_lut_AOI22X1
AAOI22X1_88 [PC_STACK_1__1_ _1041__bF_buf9 _830_ _1038__bF_buf8] _831_ d_lut_AOI22X1
AAOI22X1_89 [PC_STACK_1__2_ _1041__bF_buf9 _837_ _1038__bF_buf3] _838_ d_lut_AOI22X1
AAOI22X1_90 [_1000__bF_buf1 PC_STACK_10__2_ PC_STACK_6__2_ _1102__bF_buf3] _1103_ d_lut_AOI22X1
AAOI22X1_91 [PC_STACK_1__3_ _1041__bF_buf10 _844_ _1045__bF_buf10] _845_ d_lut_AOI22X1
AAOI22X1_92 [PC_STACK_1__4_ _1041__bF_buf10 _851_ _1045__bF_buf10] _852_ d_lut_AOI22X1
AAOI22X1_93 [_867_ _1038__bF_buf5 _1045__bF_buf5 _869_] _870_ d_lut_AOI22X1
AAOI22X1_94 [_1045__bF_buf10 _883_ _884_ PC_STACK_1__8_] _885_ d_lut_AOI22X1
AAOI22X1_95 [_1045__bF_buf10 _889_ _884_ PC_STACK_1__9_] _890_ d_lut_AOI22X1
AAOI22X1_96 [PC_STACK_0__0_ _1041__bF_buf6 _896_ _1045__bF_buf8] _897_ d_lut_AOI22X1
AAOI22X1_97 [PC_STACK_0__1_ _1041__bF_buf6 _903_ _1038__bF_buf7] _904_ d_lut_AOI22X1
AAOI22X1_98 [PC_STACK_0__2_ _1041__bF_buf6 _910_ _1038__bF_buf7] _911_ d_lut_AOI22X1
AAOI22X1_99 [PC_STACK_0__3_ _1041__bF_buf6 _917_ _1045__bF_buf4] _918_ d_lut_AOI22X1
AAOI22X1_100 [PC_STACK_0__4_ _1041__bF_buf6 _924_ _1045__bF_buf8] _925_ d_lut_AOI22X1
AAOI22X1_101 [PC_STACK_1__2_ _990__bF_buf1 _1104_ PC_STACK_7__2_] _1105_ d_lut_AOI22X1
AAOI22X1_102 [PC_STACK_0__5_ _1041__bF_buf6 _931_ _1045__bF_buf8] _932_ d_lut_AOI22X1
AAOI22X1_103 [_938_ _1038__bF_buf2 _1045__bF_buf0 _940_] _941_ d_lut_AOI22X1
AAOI22X1_104 [_954_ _1045__bF_buf6 _955_ PC_STACK_0__8_] _956_ d_lut_AOI22X1
AAOI22X1_105 [_960_ _1045__bF_buf6 _955_ PC_STACK_0__9_] _961_ d_lut_AOI22X1
AAOI22X1_106 [PC_STACK_12__0_ _992__bF_buf1 _990__bF_buf1 PC_STACK_1__0_] _993_ d_lut_AOI22X1
AAOI22X1_107 [PC_STACK_6__0_ _1102__bF_buf3 _1104_ PC_STACK_7__0_] _1113_ d_lut_AOI22X1
AAOI22X1_108 [PC_STACK_6__1_ _1102__bF_buf3 _1104_ PC_STACK_7__1_] _1129_ d_lut_AOI22X1
AAOI22X1_109 [PC_STACK_6__2_ _1041__bF_buf2 _1149_ _1038__bF_buf3] _1150_ d_lut_AOI22X1
AAOI22X1_110 [_984_ PC_STACK_4__3_ PC_STACK_9__3_ _997__bF_buf2] _1158_ d_lut_AOI22X1
AAOI22X1_111 [PC_STACK_12__3_ _992__bF_buf2 _987__bF_buf3 PC_STACK_5__3_] _1159_ d_lut_AOI22X1
AAOI22X1_112 [PC_STACK_6__3_ _1041__bF_buf10 _1189_ _1045__bF_buf9] _1190_ d_lut_AOI22X1
AAOI22X1_113 [PC_STACK_4__4_ _984_ _1191_ PC_STACK_2__4_] _1192_ d_lut_AOI22X1
AAOI22X1_114 [PC_STACK_14__4_ _1023_ _1025_ PC_STACK_0__4_] _1193_ d_lut_AOI22X1
AAOI22X1_115 [PC_STACK_6__4_ _1102__bF_buf3 _1104_ PC_STACK_7__4_] _1195_ d_lut_AOI22X1
AAOI22X1_116 [PC_STACK_3__4_ _1196_ _990__bF_buf0 PC_STACK_1__4_] _1197_ d_lut_AOI22X1
AAOI22X1_117 [_997__bF_buf1 PC_STACK_9__0_ PC_STACK_10__0_ _1000__bF_buf1] _1001_ d_lut_AOI22X1
AAOI22X1_118 [PC_STACK_11__4_ _1026_ _1000__bF_buf2 PC_STACK_10__4_] _1207_ d_lut_AOI22X1
AAOI22X1_119 [PC_STACK_12__4_ _992__bF_buf2 _987__bF_buf3 PC_STACK_5__4_] _1208_ d_lut_AOI22X1
AAOI22X1_120 [PC_STACK_6__4_ _1041__bF_buf10 _1221_ _1045__bF_buf9] _1222_ d_lut_AOI22X1
AAOI22X1_121 [PC_STACK_13__5_ _1022_ _997__bF_buf2 PC_STACK_9__5_] _1223_ d_lut_AOI22X1
AAOI22X1_122 [PC_STACK_12__5_ _992__bF_buf1 _1102__bF_buf3 PC_STACK_6__5_] _1224_ d_lut_AOI22X1
AAOI22X1_123 [PC_STACK_11__5_ _1026_ _1000__bF_buf1 PC_STACK_10__5_] _1225_ d_lut_AOI22X1
AAOI22X1_124 [PC_STACK_15__5_ _1003_ _1004__bF_buf0 PC_STACK_8__5_] _1226_ d_lut_AOI22X1
AAOI22X1_125 [PC_STACK_3__5_ _1196_ _1191_ PC_STACK_2__5_] _1229_ d_lut_AOI22X1
AAOI22X1_126 [_984_ PC_STACK_4__5_ PC_STACK_1__5_ _990__bF_buf0] _1230_ d_lut_AOI22X1
AAOI22X1_127 [PC_STACK_14__5_ _1023_ _1025_ PC_STACK_0__5_] _1232_ d_lut_AOI22X1
AAOI22X1_128 [PC_STACK_15__0_ _1003_ _1004__bF_buf0 PC_STACK_8__0_] _1005_ d_lut_AOI22X1
AAOI22X1_129 [PC_STACK_5__5_ _987__bF_buf2 _1104_ PC_STACK_7__5_] _1233_ d_lut_AOI22X1
AAOI22X1_130 [PC_STACK_6__5_ _1041__bF_buf10 _1246_ _1045__bF_buf9] _1247_ d_lut_AOI22X1
AAOI22X1_131 [PC_STACK_5__6_ _987__bF_buf1 _1104_ PC_STACK_7__6_] _1256_ d_lut_AOI22X1
AAOI22X1_132 [PC_STACK_12__6_ _992__bF_buf0 _1102__bF_buf1 PC_STACK_6__6_] _1257_ d_lut_AOI22X1
AAOI22X1_133 [PC_STACK_3__6_ _1196_ _990__bF_buf2 PC_STACK_1__6_] _1266_ d_lut_AOI22X1
AAOI22X1_134 [PC_STACK_0__6_ _1025_ _1000__bF_buf3 PC_STACK_10__6_] _1267_ d_lut_AOI22X1
AAOI22X1_135 [_1279_ _1038__bF_buf5 _1045__bF_buf10 _1282_] _1283_ d_lut_AOI22X1
AAOI22X1_136 [PC_STACK_11__7_ _1026_ _1000__bF_buf3 PC_STACK_10__7_] _1291_ d_lut_AOI22X1
AAOI22X1_137 [PC_STACK_14__7_ _1023_ _1004__bF_buf2 PC_STACK_8__7_] _1292_ d_lut_AOI22X1
AAOI22X1_138 [PC_STACK_12__7_ _992__bF_buf3 _984_ PC_STACK_4__7_] _1294_ d_lut_AOI22X1
AAOI22X1_139 [_1022_ PC_STACK_13__0_ PC_STACK_14__0_ _1023_] _1024_ d_lut_AOI22X1
AAOI22X1_140 [PC_STACK_6__7_ _1102__bF_buf2 _1191_ PC_STACK_2__7_] _1295_ d_lut_AOI22X1
AAOI22X1_141 [PC_STACK_15__7_ _1003_ _1025_ PC_STACK_0__7_] _1296_ d_lut_AOI22X1
AAOI22X1_142 [_990__bF_buf2 PC_STACK_1__7_ PC_STACK_5__7_ _987__bF_buf2] _1297_ d_lut_AOI22X1
AAOI22X1_143 [_1004__bF_buf3 PC_STACK_8__8_ PC_STACK_9__8_ _997__bF_buf0] _1318_ d_lut_AOI22X1
AAOI22X1_144 [PC_STACK_11__8_ _1026_ _1000__bF_buf2 PC_STACK_10__8_] _1319_ d_lut_AOI22X1
AAOI22X1_145 [PC_STACK_3__8_ _1196_ _987__bF_buf2 PC_STACK_5__8_] _1336_ d_lut_AOI22X1
AAOI22X1_146 [_1347_ PC_STACK_6__8_ _1045__bF_buf10 _1346_] _1348_ d_lut_AOI22X1
AAOI22X1_147 [_1023_ PC_STACK_14__9_ PC_STACK_11__9_ _1026_] _1350_ d_lut_AOI22X1
AAOI22X1_148 [PC_STACK_15__9_ _1003_ _997__bF_buf3 PC_STACK_9__9_] _1351_ d_lut_AOI22X1
AAOI22X1_149 [_990__bF_buf2 PC_STACK_1__9_ PC_STACK_5__9_ _987__bF_buf2] _1359_ d_lut_AOI22X1
AAOI22X1_150 [PC_STACK_11__0_ _1026_ _1025_ PC_STACK_0__0_] _1027_ d_lut_AOI22X1
AAOI22X1_151 [_1004__bF_buf3 PC_STACK_8__9_ PC_STACK_10__9_ _1000__bF_buf0] _1360_ d_lut_AOI22X1
AAOI22X1_152 [PC_STACK_3__9_ _1196_ _1102__bF_buf0 PC_STACK_6__9_] _1362_ d_lut_AOI22X1
AAOI22X1_153 [PC_STACK_12__9_ _992__bF_buf1 _1191_ PC_STACK_2__9_] _1363_ d_lut_AOI22X1
AAOI22X1_154 [_1349_ _1025_ _1365_ _1358_] _1543__9_ d_lut_AOI22X1
AAOI22X1_155 [_1347_ PC_STACK_6__9_ _1045__bF_buf10 _1374_] _1375_ d_lut_AOI22X1
AAOI22X1_156 [PC_STACK_12__0_ _1041__bF_buf9 _1381_ _1045__bF_buf6] _1382_ d_lut_AOI22X1
AAOI22X1_157 [PC_STACK_12__1_ _1041__bF_buf9 _1388_ _1038__bF_buf5] _1389_ d_lut_AOI22X1
AAOI22X1_158 [PC_STACK_12__2_ _1041__bF_buf4 _1395_ _1038__bF_buf10] _1396_ d_lut_AOI22X1
AAOI22X1_159 [PC_STACK_12__3_ _1041__bF_buf9 _1402_ _1045__bF_buf6] _1403_ d_lut_AOI22X1
AAOI22X1_160 [PC_STACK_12__4_ _1041__bF_buf9 _1409_ _1045__bF_buf5] _1410_ d_lut_AOI22X1
AAOI22X1_161 [PC_STACK_6__0_ _1041__bF_buf6 _1044_ _1045__bF_buf4] _1046_ d_lut_AOI22X1
AAOI22X1_162 [PC_STACK_12__5_ _1041__bF_buf9 _1416_ _1045__bF_buf5] _1417_ d_lut_AOI22X1
AAOI22X1_163 [_1424_ _1038__bF_buf5 _1045__bF_buf5 _1426_] _1427_ d_lut_AOI22X1
AAOI22X1_164 [_1045__bF_buf0 _1441_ _1443_ PC_STACK_12__8_] _1444_ d_lut_AOI22X1
AAOI22X1_165 [_1045__bF_buf5 _1448_ _1443_ PC_STACK_12__9_] _1449_ d_lut_AOI22X1
AAOI22X1_166 [PC_STACK_13__0_ _1041__bF_buf0 _1455_ _1045__bF_buf6] _1456_ d_lut_AOI22X1
AAOI22X1_167 [PC_STACK_13__1_ _1041__bF_buf2 _1462_ _1038__bF_buf0] _1463_ d_lut_AOI22X1
AAOI22X1_168 [PC_STACK_13__2_ _1041__bF_buf7 _1469_ _1038__bF_buf0] _1470_ d_lut_AOI22X1
AAOI22X1_169 [PC_STACK_13__3_ _1041__bF_buf2 _1476_ _1045__bF_buf6] _1477_ d_lut_AOI22X1
AAOI22X1_170 [PC_STACK_13__4_ _1041__bF_buf5 _1483_ _1045__bF_buf3] _1484_ d_lut_AOI22X1
AAOI22X1_171 [PC_STACK_13__5_ _1041__bF_buf0 _1490_ _1045__bF_buf2] _1491_ d_lut_AOI22X1
AAOI22X1_172 [_984_ PC_STACK_4__1_ PC_STACK_5__1_ _987__bF_buf3] _1047_ d_lut_AOI22X1
AAOI22X1_173 [_1498_ _1038__bF_buf10 _1045__bF_buf2 _1500_] _1501_ d_lut_AOI22X1
AAOI22X1_174 [PC_STACK_13__8_ _1516_ _1515_ _1045__bF_buf1] _1517_ d_lut_AOI22X1
AAOI22X1_175 [PC_STACK_13__9_ _1516_ _1521_ _1045__bF_buf1] _1522_ d_lut_AOI22X1
AAOI22X1_176 [PC_STACK_14__0_ _1041__bF_buf0 _1528_ _1045__bF_buf1] _1529_ d_lut_AOI22X1
AAOI22X1_177 [PC_STACK_14__1_ _1041__bF_buf4 _1535_ _1038__bF_buf10] _1536_ d_lut_AOI22X1
AAOI22X1_178 [PC_STACK_14__2_ _1041__bF_buf0 _18_ _1038__bF_buf2] _19_ d_lut_AOI22X1
AAOI22X1_179 [PC_STACK_14__3_ _1041__bF_buf8 _25_ _1045__bF_buf0] _26_ d_lut_AOI22X1
AAOI22X1_180 [PC_STACK_14__4_ _1041__bF_buf6 _32_ _1045__bF_buf4] _33_ d_lut_AOI22X1
AAOI22X1_181 [PC_STACK_14__5_ _1041__bF_buf6 _39_ _1045__bF_buf4] _40_ d_lut_AOI22X1
AAOI22X1_182 [_46_ _1038__bF_buf2 _1045__bF_buf1 _48_] _49_ d_lut_AOI22X1
AAOI22X1_183 [PC_STACK_12__1_ _992__bF_buf1 _990__bF_buf1 PC_STACK_1__1_] _1048_ d_lut_AOI22X1
AAOI22X1_184 [PC_STACK_14__8_ _63_ _62_ _1045__bF_buf1] _64_ d_lut_AOI22X1
AAOI22X1_185 [PC_STACK_14__9_ _63_ _68_ _1045__bF_buf1] _69_ d_lut_AOI22X1
AAOI22X1_186 [PC_STACK_7__0_ _1041__bF_buf1 _98_ _1045__bF_buf4] _99_ d_lut_AOI22X1
AAOI22X1_187 [PC_STACK_7__1_ _1041__bF_buf1 _105_ _1038__bF_buf8] _106_ d_lut_AOI22X1
AAOI22X1_188 [PC_STACK_7__2_ _1041__bF_buf9 _112_ _1038__bF_buf8] _113_ d_lut_AOI22X1
AAOI22X1_189 [PC_STACK_7__3_ _1041__bF_buf10 _119_ _1045__bF_buf9] _120_ d_lut_AOI22X1
AAOI22X1_190 [PC_STACK_7__4_ _1041__bF_buf10 _126_ _1045__bF_buf9] _127_ d_lut_AOI22X1
AAOI22X1_191 [_142_ _1038__bF_buf9 _1045__bF_buf0 _144_] _145_ d_lut_AOI22X1
AAOI22X1_192 [_1045__bF_buf10 _158_ _159_ PC_STACK_7__8_] _160_ d_lut_AOI22X1
AAOI22X1_193 [_1045__bF_buf10 _164_ _159_ PC_STACK_7__9_] _165_ d_lut_AOI22X1
ABUFX2_1 [_1542__0_] _0__0_ d_lut_BUFX2
ABUFX2_2 [_1542__9_] _0__9_ d_lut_BUFX2
ABUFX2_3 [_1542__10_] _0__10_ d_lut_BUFX2
ABUFX2_4 [_1542__11_] _0__11_ d_lut_BUFX2
ABUFX2_5 [_1542__12_] _0__12_ d_lut_BUFX2
ABUFX2_6 [_1542__13_] _0__13_ d_lut_BUFX2
ABUFX2_7 [_1542__14_] _0__14_ d_lut_BUFX2
ABUFX2_8 [IDATA_CORE_out_15_] _0__15_ d_lut_BUFX2
ABUFX2_9 [_1543__0_] _1__0_ d_lut_BUFX2
ABUFX2_10 [_1543__1_] _1__1_ d_lut_BUFX2
ABUFX2_11 [_1543__2_] _1__2_ d_lut_BUFX2
ABUFX2_12 [_1542__1_] _0__1_ d_lut_BUFX2
ABUFX2_13 [_1543__3_] _1__3_ d_lut_BUFX2
ABUFX2_14 [_1543__4_] _1__4_ d_lut_BUFX2
ABUFX2_15 [_1543__5_] _1__5_ d_lut_BUFX2
ABUFX2_16 [_1543__6_] _1__6_ d_lut_BUFX2
ABUFX2_17 [_1543__7_] _1__7_ d_lut_BUFX2
ABUFX2_18 [_1543__8_] _1__8_ d_lut_BUFX2
ABUFX2_19 [_1543__9_] _1__9_ d_lut_BUFX2
ABUFX2_20 [_1544_] _2_ d_lut_BUFX2
ABUFX2_21 [_1545__0_] _3__0_ d_lut_BUFX2
ABUFX2_22 [_1545__1_] _3__1_ d_lut_BUFX2
ABUFX2_23 [_1542__2_] _0__2_ d_lut_BUFX2
ABUFX2_24 [_1545__2_] _3__2_ d_lut_BUFX2
ABUFX2_25 [_1545__3_] _3__3_ d_lut_BUFX2
ABUFX2_26 [_1545__4_] _3__4_ d_lut_BUFX2
ABUFX2_27 [_1545__5_] _3__5_ d_lut_BUFX2
ABUFX2_28 [_1545__6_] _3__6_ d_lut_BUFX2
ABUFX2_29 [_1545__7_] _3__7_ d_lut_BUFX2
ABUFX2_30 [_1545__8_] _3__8_ d_lut_BUFX2
ABUFX2_31 [_1545__9_] _3__9_ d_lut_BUFX2
ABUFX2_32 [_1542__3_] _0__3_ d_lut_BUFX2
ABUFX2_33 [_1542__4_] _0__4_ d_lut_BUFX2
ABUFX2_34 [_1542__5_] _0__5_ d_lut_BUFX2
ABUFX2_35 [_1542__6_] _0__6_ d_lut_BUFX2
ABUFX2_36 [_1542__7_] _0__7_ d_lut_BUFX2
ABUFX2_37 [_1542__8_] _0__8_ d_lut_BUFX2
ABUFX4_1 [_1116_] _1116__bF_buf4 d_lut_BUFX4
ABUFX4_2 [_999_] _999__bF_buf5 d_lut_BUFX4
ABUFX4_3 [rst] rst_bF_buf3 d_lut_BUFX4
ABUFX4_4 [rst] rst_bF_buf2 d_lut_BUFX4
ABUFX4_5 [rst] rst_bF_buf1 d_lut_BUFX4
ABUFX4_6 [rst] rst_bF_buf0 d_lut_BUFX4
ABUFX4_7 [_1109_] _1109__bF_buf4 d_lut_BUFX4
ABUFX4_8 [_1109_] _1109__bF_buf3 d_lut_BUFX4
ABUFX4_9 [_1109_] _1109__bF_buf2 d_lut_BUFX4
ABUFX4_10 [_1109_] _1109__bF_buf1 d_lut_BUFX4
ABUFX4_11 [_1109_] _1109__bF_buf0 d_lut_BUFX4
ABUFX4_12 [_992_] _992__bF_buf3 d_lut_BUFX4
ABUFX4_13 [_999_] _999__bF_buf4 d_lut_BUFX4
ABUFX4_14 [_992_] _992__bF_buf2 d_lut_BUFX4
ABUFX4_15 [_992_] _992__bF_buf1 d_lut_BUFX4
ABUFX4_16 [_992_] _992__bF_buf0 d_lut_BUFX4
ABUFX4_17 [_989_] _989__bF_buf5 d_lut_BUFX4
ABUFX4_18 [_989_] _989__bF_buf4 d_lut_BUFX4
ABUFX4_19 [_989_] _989__bF_buf3 d_lut_BUFX4
ABUFX4_20 [_989_] _989__bF_buf2 d_lut_BUFX4
ABUFX4_21 [_989_] _989__bF_buf1 d_lut_BUFX4
ABUFX4_22 [_989_] _989__bF_buf0 d_lut_BUFX4
ABUFX4_23 [_1085_] _1085__bF_buf4 d_lut_BUFX4
ABUFX4_24 [_999_] _999__bF_buf3 d_lut_BUFX4
ABUFX4_25 [_1085_] _1085__bF_buf3 d_lut_BUFX4
ABUFX4_26 [_1085_] _1085__bF_buf2 d_lut_BUFX4
ABUFX4_27 [_1085_] _1085__bF_buf1 d_lut_BUFX4
ABUFX4_28 [_1085_] _1085__bF_buf0 d_lut_BUFX4
ABUFX4_29 [_986_] _986__bF_buf5 d_lut_BUFX4
ABUFX4_30 [_986_] _986__bF_buf4 d_lut_BUFX4
ABUFX4_31 [_986_] _986__bF_buf3 d_lut_BUFX4
ABUFX4_32 [_986_] _986__bF_buf2 d_lut_BUFX4
ABUFX4_33 [_986_] _986__bF_buf1 d_lut_BUFX4
ABUFX4_34 [_986_] _986__bF_buf0 d_lut_BUFX4
ABUFX4_35 [_999_] _999__bF_buf2 d_lut_BUFX4
ABUFX4_36 [_983_] _983__bF_buf6 d_lut_BUFX4
ABUFX4_37 [_983_] _983__bF_buf5 d_lut_BUFX4
ABUFX4_38 [_983_] _983__bF_buf4 d_lut_BUFX4
ABUFX4_39 [_983_] _983__bF_buf3 d_lut_BUFX4
ABUFX4_40 [_983_] _983__bF_buf2 d_lut_BUFX4
ABUFX4_41 [_983_] _983__bF_buf1 d_lut_BUFX4
ABUFX4_42 [_983_] _983__bF_buf0 d_lut_BUFX4
ABUFX4_43 [_1041_] _1041__bF_buf10 d_lut_BUFX4
ABUFX4_44 [_1041_] _1041__bF_buf9 d_lut_BUFX4
ABUFX4_45 [_1041_] _1041__bF_buf8 d_lut_BUFX4
ABUFX4_46 [_999_] _999__bF_buf1 d_lut_BUFX4
ABUFX4_47 [_1041_] _1041__bF_buf7 d_lut_BUFX4
ABUFX4_48 [_1041_] _1041__bF_buf6 d_lut_BUFX4
ABUFX4_49 [_1041_] _1041__bF_buf5 d_lut_BUFX4
ABUFX4_50 [_1041_] _1041__bF_buf4 d_lut_BUFX4
ABUFX4_51 [_1041_] _1041__bF_buf3 d_lut_BUFX4
ABUFX4_52 [_1041_] _1041__bF_buf2 d_lut_BUFX4
ABUFX4_53 [_1041_] _1041__bF_buf1 d_lut_BUFX4
ABUFX4_54 [_1041_] _1041__bF_buf0 d_lut_BUFX4
ABUFX4_55 [_1038_] _1038__bF_buf10 d_lut_BUFX4
ABUFX4_56 [_1038_] _1038__bF_buf9 d_lut_BUFX4
ABUFX4_57 [_999_] _999__bF_buf0 d_lut_BUFX4
ABUFX4_58 [_1038_] _1038__bF_buf8 d_lut_BUFX4
ABUFX4_59 [_1038_] _1038__bF_buf7 d_lut_BUFX4
ABUFX4_60 [_1038_] _1038__bF_buf6 d_lut_BUFX4
ABUFX4_61 [_1038_] _1038__bF_buf5 d_lut_BUFX4
ABUFX4_62 [_1038_] _1038__bF_buf4 d_lut_BUFX4
ABUFX4_63 [_1038_] _1038__bF_buf3 d_lut_BUFX4
ABUFX4_64 [_1038_] _1038__bF_buf2 d_lut_BUFX4
ABUFX4_65 [_1038_] _1038__bF_buf1 d_lut_BUFX4
ABUFX4_66 [_1038_] _1038__bF_buf0 d_lut_BUFX4
ABUFX4_67 [_1000_] _1000__bF_buf3 d_lut_BUFX4
ABUFX4_68 [_1095_] _1095__bF_buf4 d_lut_BUFX4
ABUFX4_69 [_1000_] _1000__bF_buf2 d_lut_BUFX4
ABUFX4_70 [_1000_] _1000__bF_buf1 d_lut_BUFX4
ABUFX4_71 [_1000_] _1000__bF_buf0 d_lut_BUFX4
ABUFX4_72 [_1099_] _1099__bF_buf4 d_lut_BUFX4
ABUFX4_73 [_1099_] _1099__bF_buf3 d_lut_BUFX4
ABUFX4_74 [_1099_] _1099__bF_buf2 d_lut_BUFX4
ABUFX4_75 [_1099_] _1099__bF_buf1 d_lut_BUFX4
ABUFX4_76 [_1099_] _1099__bF_buf0 d_lut_BUFX4
ABUFX4_77 [_1311_] _1311__bF_buf3 d_lut_BUFX4
ABUFX4_78 [_1311_] _1311__bF_buf2 d_lut_BUFX4
ABUFX4_79 [_1095_] _1095__bF_buf3 d_lut_BUFX4
ABUFX4_80 [_1311_] _1311__bF_buf1 d_lut_BUFX4
ABUFX4_81 [_1311_] _1311__bF_buf0 d_lut_BUFX4
ABUFX4_82 [_1117_] _1117__bF_buf4 d_lut_BUFX4
ABUFX4_83 [_1117_] _1117__bF_buf3 d_lut_BUFX4
ABUFX4_84 [_1117_] _1117__bF_buf2 d_lut_BUFX4
ABUFX4_85 [_1117_] _1117__bF_buf1 d_lut_BUFX4
ABUFX4_86 [_1117_] _1117__bF_buf0 d_lut_BUFX4
ABUFX4_87 [_1020_] _1020__bF_buf4 d_lut_BUFX4
ABUFX4_88 [_1020_] _1020__bF_buf3 d_lut_BUFX4
ABUFX4_89 [_1020_] _1020__bF_buf2 d_lut_BUFX4
ABUFX4_90 [_1095_] _1095__bF_buf2 d_lut_BUFX4
ABUFX4_91 [_1020_] _1020__bF_buf1 d_lut_BUFX4
ABUFX4_92 [_1020_] _1020__bF_buf0 d_lut_BUFX4
ABUFX4_93 [_997_] _997__bF_buf3 d_lut_BUFX4
ABUFX4_94 [_997_] _997__bF_buf2 d_lut_BUFX4
ABUFX4_95 [_997_] _997__bF_buf1 d_lut_BUFX4
ABUFX4_96 [_997_] _997__bF_buf0 d_lut_BUFX4
ABUFX4_97 [_310_] _310__bF_buf3 d_lut_BUFX4
ABUFX4_98 [_310_] _310__bF_buf2 d_lut_BUFX4
ABUFX4_99 [_310_] _310__bF_buf1 d_lut_BUFX4
ABUFX4_100 [_310_] _310__bF_buf0 d_lut_BUFX4
ABUFX4_101 [_1095_] _1095__bF_buf1 d_lut_BUFX4
ABUFX4_102 [_1011_] _1011__bF_buf4 d_lut_BUFX4
ABUFX4_103 [_1011_] _1011__bF_buf3 d_lut_BUFX4
ABUFX4_104 [_1011_] _1011__bF_buf2 d_lut_BUFX4
ABUFX4_105 [_1011_] _1011__bF_buf1 d_lut_BUFX4
ABUFX4_106 [_1011_] _1011__bF_buf0 d_lut_BUFX4
ABUFX4_107 [_991_] _991__bF_buf6 d_lut_BUFX4
ABUFX4_108 [_991_] _991__bF_buf5 d_lut_BUFX4
ABUFX4_109 [_991_] _991__bF_buf4 d_lut_BUFX4
ABUFX4_110 [_991_] _991__bF_buf3 d_lut_BUFX4
ABUFX4_111 [_991_] _991__bF_buf2 d_lut_BUFX4
ABUFX4_112 [_1116_] _1116__bF_buf3 d_lut_BUFX4
ABUFX4_113 [_1095_] _1095__bF_buf0 d_lut_BUFX4
ABUFX4_114 [_991_] _991__bF_buf1 d_lut_BUFX4
ABUFX4_115 [_991_] _991__bF_buf0 d_lut_BUFX4
ABUFX4_116 [_1084_] _1084__bF_buf4 d_lut_BUFX4
ABUFX4_117 [_1084_] _1084__bF_buf3 d_lut_BUFX4
ABUFX4_118 [_1084_] _1084__bF_buf2 d_lut_BUFX4
ABUFX4_119 [_1084_] _1084__bF_buf1 d_lut_BUFX4