*SPICE netlist created from BLIF module NRISC_PC_ctrl by blif2BSpice
.include /usr/local/share/qflow/tech/osu018/osu018_stdcells.sp
.subckt NRISC_PC_ctrl vdd gnd IDATA_CORE_out<0> IDATA_CORE_out<1> IDATA_CORE_out<2> IDATA_CORE_out<3> IDATA_CORE_out<4> IDATA_CORE_out<5> IDATA_CORE_out<6> IDATA_CORE_out<7> IDATA_CORE_out<8> IDATA_CORE_out<9> IDATA_CORE_out<10> IDATA_CORE_out<11> IDATA_CORE_out<12> IDATA_CORE_out<13> IDATA_CORE_out<14> IDATA_CORE_out<15> CORE_PC_ctrl<0> CORE_PC_ctrl<1> CORE_STACK_ctrl<0> CORE_STACK_ctrl<1> ULA_OUT<0> ULA_OUT<1> ULA_OUT<2> ULA_OUT<3> ULA_OUT<4> ULA_OUT<5> ULA_OUT<6> ULA_OUT<7> ULA_OUT<8> ULA_OUT<9> INTERRUPT_ch<0> INTERRUPT_ch<1> INTERRUPT_ch<2> INTERRUPT_ch<3> INTERRUPT_ch<4> INTERRUPT_ch<5> INTERRUPT_ch<6> INTERRUPT_ch<7> INTERRUPT_flag clk rst IDATA_CORE_addr<0> IDATA_CORE_addr<1> IDATA_CORE_addr<2> IDATA_CORE_addr<3> IDATA_CORE_addr<4> IDATA_CORE_addr<5> IDATA_CORE_addr<6> IDATA_CORE_addr<7> IDATA_CORE_addr<8> IDATA_CORE_addr<9> IDATA_clk CORE_InstructionIN<0> CORE_InstructionIN<1> CORE_InstructionIN<2> CORE_InstructionIN<3> CORE_InstructionIN<4> CORE_InstructionIN<5> CORE_InstructionIN<6> CORE_InstructionIN<7> CORE_InstructionIN<8> CORE_InstructionIN<9> CORE_InstructionIN<10> CORE_InstructionIN<11> CORE_InstructionIN<12> CORE_InstructionIN<13> CORE_InstructionIN<14> CORE_InstructionIN<15> REG_R0<0> REG_R0<1> REG_R0<2> REG_R0<3> REG_R0<4> REG_R0<5> REG_R0<6> REG_R0<7> REG_R0<8> REG_R0<9> 
XAND2X2_1 vdd gnd PC_pointer_0_ PC_pointer_1_ _1012_ AND2X2
XAND2X2_2 vdd gnd _1314_ _1308_ _1315_ AND2X2
XAND2X2_3 vdd gnd _1359_ _1360_ _1361_ AND2X2
XAND2X2_4 vdd gnd _1363_ _1362_ _1364_ AND2X2
XAND2X2_5 vdd gnd _1364_ _1361_ _1365_ AND2X2
XAND2X2_6 vdd gnd _1274_ _992__bF_buf0 _1420_ AND2X2
XAND2X2_7 vdd gnd _1434_ _1430_ _1435_ AND2X2
XAND2X2_8 vdd gnd _1274_ _1022_ _1494_ AND2X2
XAND2X2_9 vdd gnd _1508_ _1505_ _1509_ AND2X2
XAND2X2_10 vdd gnd _1274_ _1023_ _43_ AND2X2
XAND2X2_11 vdd gnd _55_ _52_ _56_ AND2X2
XAND2X2_12 vdd gnd PC_pointer_2_ PC_pointer_3_ _1079_ AND2X2
XAND2X2_13 vdd gnd _83_ _86_ _87_ AND2X2
XAND2X2_14 vdd gnd _75_ _1095__bF_buf2 _88_ AND2X2
XAND2X2_15 vdd gnd _89_ _91_ _92_ AND2X2
XAND2X2_16 vdd gnd _1274_ _1104_ _139_ AND2X2
XAND2X2_17 vdd gnd _151_ _148_ _152_ AND2X2
XAND2X2_18 vdd gnd _1274_ _1003_ _210_ AND2X2
XAND2X2_19 vdd gnd _222_ _219_ _223_ AND2X2
XAND2X2_20 vdd gnd _1274_ _997__bF_buf0 _282_ AND2X2
XAND2X2_21 vdd gnd _294_ _291_ _295_ AND2X2
XAND2X2_22 vdd gnd _1274_ _1000__bF_buf0 _355_ AND2X2
XAND2X2_23 vdd gnd _1192_ _1193_ _1194_ AND2X2
XAND2X2_24 vdd gnd _367_ _364_ _368_ AND2X2
XAND2X2_25 vdd gnd _1274_ _1004__bF_buf1 _428_ AND2X2
XAND2X2_26 vdd gnd _440_ _437_ _441_ AND2X2
XAND2X2_27 vdd gnd _1274_ _1026_ _499_ AND2X2
XAND2X2_28 vdd gnd _511_ _508_ _512_ AND2X2
XAND2X2_29 vdd gnd _1274_ _987__bF_buf1 _572_ AND2X2
XAND2X2_30 vdd gnd _584_ _581_ _585_ AND2X2
XAND2X2_31 vdd gnd _1274_ _984_ _645_ AND2X2
XAND2X2_32 vdd gnd _657_ _654_ _658_ AND2X2
XAND2X2_33 vdd gnd _1274_ _1196_ _717_ AND2X2
XAND2X2_34 vdd gnd _1225_ _1226_ _1227_ AND2X2
XAND2X2_35 vdd gnd _729_ _726_ _730_ AND2X2
XAND2X2_36 vdd gnd _1274_ _1191_ _791_ AND2X2
XAND2X2_37 vdd gnd _803_ _800_ _804_ AND2X2
XAND2X2_38 vdd gnd _1274_ _990__bF_buf1 _864_ AND2X2
XAND2X2_39 vdd gnd _876_ _873_ _877_ AND2X2
XAND2X2_40 vdd gnd _1274_ _1025_ _935_ AND2X2
XAND2X2_41 vdd gnd _947_ _944_ _948_ AND2X2
XAND2X2_42 vdd gnd _1229_ _1230_ _1231_ AND2X2
XAND2X2_43 vdd gnd _1274_ _1102__bF_buf1 _1275_ AND2X2
XAND2X2_44 vdd gnd _1042_ ULA_OUT<6> _1280_ AND2X2
XAND2X2_45 vdd gnd _1297_ _1296_ _1298_ AND2X2
XAND2X2_46 vdd gnd _1042_ ULA_OUT<7> _1313_ AND2X2
XAOI21X1_1 gnd vdd _1212_ _1211_ _1213_ rst_bF_buf0 AOI21X1
XAOI21X1_2 gnd vdd _1430_ _1431_ _1432_ _1307_ AOI21X1
XAOI21X1_3 gnd vdd _1038__bF_buf2 _1506_ _1511_ _1510_ AOI21X1
XAOI21X1_4 gnd vdd _1040_ _1022_ _1516_ _1037_ AOI21X1
XAOI21X1_5 gnd vdd _1038__bF_buf2 _53_ _58_ _57_ AOI21X1
XAOI21X1_6 gnd vdd _1040_ _1023_ _63_ _1037_ AOI21X1
XAOI21X1_7 gnd vdd _1037_ _70_ _73_ _72_ AOI21X1
XAOI21X1_8 gnd vdd PC_pointer_2_ _1012_ _90_ _981_ AOI21X1
XAOI21X1_9 gnd vdd _1038__bF_buf4 _131_ _136_ _135_ AOI21X1
XAOI21X1_10 gnd vdd _1038__bF_buf9 _149_ _154_ _153_ AOI21X1
XAOI21X1_11 gnd vdd _1040_ _1104_ _159_ _1037_ AOI21X1
XAOI21X1_12 gnd vdd _1272_ _1543__6_ _1274_ _1273_ AOI21X1
XAOI21X1_13 gnd vdd _1038__bF_buf2 _220_ _225_ _224_ AOI21X1
XAOI21X1_14 gnd vdd _1038__bF_buf10 _292_ _297_ _296_ AOI21X1
XAOI21X1_15 gnd vdd _997__bF_buf0 _1343_ _300_ _299_ AOI21X1
XAOI21X1_16 gnd vdd _353_ _359_ _360_ _1311__bF_buf3 AOI21X1
XAOI21X1_17 gnd vdd _1038__bF_buf2 _358_ _361_ _360_ AOI21X1
XAOI21X1_18 gnd vdd _1038__bF_buf2 _365_ _370_ _369_ AOI21X1
XAOI21X1_19 gnd vdd _1000__bF_buf2 _1343_ _373_ _372_ AOI21X1
XAOI21X1_20 gnd vdd _1040_ _1000__bF_buf0 _375_ _1037_ AOI21X1
XAOI21X1_21 gnd vdd _1038__bF_buf3 _420_ _425_ _424_ AOI21X1
XAOI21X1_22 gnd vdd _1038__bF_buf2 _438_ _443_ _442_ AOI21X1
XAOI21X1_23 gnd vdd _1308_ _1309_ _1310_ _1307_ AOI21X1
XAOI21X1_24 gnd vdd _1004__bF_buf3 _1343_ _446_ _445_ AOI21X1
XAOI21X1_25 gnd vdd _1040_ _1004__bF_buf3 _448_ _1037_ AOI21X1
XAOI21X1_26 gnd vdd _1038__bF_buf2 _509_ _514_ _513_ AOI21X1
XAOI21X1_27 gnd vdd _1026_ _1343_ _517_ _516_ AOI21X1
XAOI21X1_28 gnd vdd _570_ _576_ _577_ _1311__bF_buf1 AOI21X1
XAOI21X1_29 gnd vdd _1038__bF_buf9 _575_ _578_ _577_ AOI21X1
XAOI21X1_30 gnd vdd _1038__bF_buf9 _582_ _587_ _586_ AOI21X1
XAOI21X1_31 gnd vdd _987__bF_buf0 _1343_ _590_ _589_ AOI21X1
XAOI21X1_32 gnd vdd _1038__bF_buf9 _655_ _660_ _659_ AOI21X1
XAOI21X1_33 gnd vdd _1038__bF_buf9 _727_ _732_ _731_ AOI21X1
XAOI21X1_34 gnd vdd PC_STACK_1__8_ _990__bF_buf3 _1331_ _1330_ AOI21X1
XAOI21X1_35 gnd vdd _1196_ _1343_ _735_ _734_ AOI21X1
XAOI21X1_36 gnd vdd _1038__bF_buf4 _783_ _788_ _787_ AOI21X1
XAOI21X1_37 gnd vdd _1038__bF_buf9 _801_ _806_ _805_ AOI21X1
XAOI21X1_38 gnd vdd _1040_ _1191_ _811_ _1037_ AOI21X1
XAOI21X1_39 gnd vdd _1038__bF_buf4 _856_ _861_ _860_ AOI21X1
XAOI21X1_40 gnd vdd _1038__bF_buf9 _874_ _879_ _878_ AOI21X1
XAOI21X1_41 gnd vdd _990__bF_buf3 _1343_ _882_ _881_ AOI21X1
XAOI21X1_42 gnd vdd _1040_ _990__bF_buf3 _884_ _1037_ AOI21X1
XAOI21X1_43 gnd vdd _1038__bF_buf5 _945_ _950_ _949_ AOI21X1
XAOI21X1_44 gnd vdd _1040_ _1025_ _955_ _1037_ AOI21X1
XAOI21X1_45 gnd vdd PC_STACK_6__8_ _1102__bF_buf1 _1335_ _1334_ AOI21X1
XAOI21X1_46 gnd vdd _1040_ _963_ _17_ rst_bF_buf0 AOI21X1
XAOI21X1_47 gnd vdd _1341_ _1543__8_ _1343_ _1342_ AOI21X1
XAOI21X1_48 gnd vdd _1102__bF_buf0 _1343_ _1344_ _1340_ AOI21X1
XAOI21X1_49 gnd vdd _1040_ _1102__bF_buf0 _1347_ _1037_ AOI21X1
XAOI21X1_50 gnd vdd _1367_ _1368_ _1369_ rst_bF_buf1 AOI21X1
XAOI22X1_1 gnd vdd PC_STACK_5__0_ _987__bF_buf3 _988_ _984_ PC_STACK_4__0_ AOI22X1
XAOI22X1_2 gnd vdd PC_STACK_10__1_ _1000__bF_buf1 _1050_ _997__bF_buf2 PC_STACK_9__1_ AOI22X1
XAOI22X1_3 gnd vdd _171_ _1045__bF_buf7 _172_ PC_STACK_15__0_ _1041__bF_buf2 AOI22X1
XAOI22X1_4 gnd vdd _178_ _1038__bF_buf1 _179_ PC_STACK_15__1_ _1041__bF_buf7 AOI22X1
XAOI22X1_5 gnd vdd _185_ _1038__bF_buf1 _186_ PC_STACK_15__2_ _1041__bF_buf7 AOI22X1
XAOI22X1_6 gnd vdd _192_ _1045__bF_buf0 _193_ PC_STACK_15__3_ _1041__bF_buf8 AOI22X1
XAOI22X1_7 gnd vdd _199_ _1045__bF_buf8 _200_ PC_STACK_15__4_ _1041__bF_buf7 AOI22X1
XAOI22X1_8 gnd vdd _206_ _1045__bF_buf8 _207_ PC_STACK_15__5_ _1041__bF_buf7 AOI22X1
XAOI22X1_9 gnd vdd _1045__bF_buf2 _215_ _216_ _213_ _1038__bF_buf10 AOI22X1
XAOI22X1_10 gnd vdd _231_ PC_STACK_15__8_ _232_ _1045__bF_buf1 _229_ AOI22X1
XAOI22X1_11 gnd vdd _231_ PC_STACK_15__9_ _237_ _1045__bF_buf1 _236_ AOI22X1
XAOI22X1_12 gnd vdd _243_ _1045__bF_buf3 _244_ PC_STACK_9__0_ _1041__bF_buf5 AOI22X1
XAOI22X1_13 gnd vdd _1004__bF_buf0 PC_STACK_8__1_ _1051_ PC_STACK_15__1_ _1003_ AOI22X1
XAOI22X1_14 gnd vdd _250_ _1038__bF_buf0 _251_ PC_STACK_9__1_ _1041__bF_buf2 AOI22X1
XAOI22X1_15 gnd vdd _257_ _1038__bF_buf10 _258_ PC_STACK_9__2_ _1041__bF_buf0 AOI22X1
XAOI22X1_16 gnd vdd _264_ _1045__bF_buf7 _265_ PC_STACK_9__3_ _1041__bF_buf2 AOI22X1
XAOI22X1_17 gnd vdd _271_ _1045__bF_buf7 _272_ PC_STACK_9__4_ _1041__bF_buf2 AOI22X1
XAOI22X1_18 gnd vdd _278_ _1045__bF_buf3 _279_ PC_STACK_9__5_ _1041__bF_buf5 AOI22X1
XAOI22X1_19 gnd vdd _1045__bF_buf3 _287_ _288_ _285_ _1038__bF_buf6 AOI22X1
XAOI22X1_20 gnd vdd _303_ PC_STACK_9__8_ _304_ _1045__bF_buf2 _301_ AOI22X1
XAOI22X1_21 gnd vdd _303_ PC_STACK_9__9_ _309_ _1045__bF_buf2 _308_ AOI22X1
XAOI22X1_22 gnd vdd _316_ _1045__bF_buf3 _317_ PC_STACK_10__0_ _1041__bF_buf5 AOI22X1
XAOI22X1_23 gnd vdd _323_ _1038__bF_buf0 _324_ PC_STACK_10__1_ _1041__bF_buf5 AOI22X1
XAOI22X1_24 gnd vdd PC_STACK_14__1_ _1023_ _1060_ _1022_ PC_STACK_13__1_ AOI22X1
XAOI22X1_25 gnd vdd _330_ _1038__bF_buf6 _331_ PC_STACK_10__2_ _1041__bF_buf5 AOI22X1
XAOI22X1_26 gnd vdd _337_ _1045__bF_buf1 _338_ PC_STACK_10__3_ _1041__bF_buf0 AOI22X1
XAOI22X1_27 gnd vdd _344_ _1045__bF_buf3 _345_ PC_STACK_10__4_ _1041__bF_buf5 AOI22X1
XAOI22X1_28 gnd vdd _351_ _1045__bF_buf3 _352_ PC_STACK_10__5_ _1041__bF_buf5 AOI22X1
XAOI22X1_29 gnd vdd _374_ _1045__bF_buf2 _376_ PC_STACK_10__8_ _375_ AOI22X1
XAOI22X1_30 gnd vdd _380_ _1045__bF_buf2 _381_ PC_STACK_10__9_ _375_ AOI22X1
XAOI22X1_31 gnd vdd _387_ _1045__bF_buf7 _388_ PC_STACK_8__0_ _1041__bF_buf7 AOI22X1
XAOI22X1_32 gnd vdd _394_ _1038__bF_buf0 _395_ PC_STACK_8__1_ _1041__bF_buf2 AOI22X1
XAOI22X1_33 gnd vdd _401_ _1038__bF_buf1 _402_ PC_STACK_8__2_ _1041__bF_buf7 AOI22X1
XAOI22X1_34 gnd vdd _408_ _1045__bF_buf7 _409_ PC_STACK_8__3_ _1041__bF_buf2 AOI22X1
XAOI22X1_35 gnd vdd _1025_ PC_STACK_0__1_ _1061_ PC_STACK_11__1_ _1026_ AOI22X1
XAOI22X1_36 gnd vdd _415_ _1045__bF_buf3 _416_ PC_STACK_8__4_ _1041__bF_buf5 AOI22X1
XAOI22X1_37 gnd vdd _1045__bF_buf2 _433_ _434_ _431_ _1038__bF_buf6 AOI22X1
XAOI22X1_38 gnd vdd _448_ PC_STACK_8__8_ _449_ _1045__bF_buf2 _447_ AOI22X1
XAOI22X1_39 gnd vdd _448_ PC_STACK_8__9_ _454_ _1045__bF_buf2 _453_ AOI22X1
XAOI22X1_40 gnd vdd _460_ _1045__bF_buf7 _461_ PC_STACK_11__0_ _1041__bF_buf7 AOI22X1
XAOI22X1_41 gnd vdd _467_ _1038__bF_buf1 _468_ PC_STACK_11__1_ _1041__bF_buf7 AOI22X1
XAOI22X1_42 gnd vdd _474_ _1038__bF_buf0 _475_ PC_STACK_11__2_ _1041__bF_buf2 AOI22X1
XAOI22X1_43 gnd vdd _481_ _1045__bF_buf8 _482_ PC_STACK_11__3_ _1041__bF_buf7 AOI22X1
XAOI22X1_44 gnd vdd _488_ _1045__bF_buf3 _489_ PC_STACK_11__4_ _1041__bF_buf5 AOI22X1
XAOI22X1_45 gnd vdd _495_ _1045__bF_buf7 _496_ PC_STACK_11__5_ _1041__bF_buf7 AOI22X1
XAOI22X1_46 gnd vdd _1053_ _1063_ _1065_ _1007_ _1029_ AOI22X1
XAOI22X1_47 gnd vdd _1045__bF_buf3 _504_ _505_ _502_ _1038__bF_buf6 AOI22X1
XAOI22X1_48 gnd vdd _520_ PC_STACK_11__8_ _521_ _1045__bF_buf2 _518_ AOI22X1
XAOI22X1_49 gnd vdd _520_ PC_STACK_11__9_ _526_ _1045__bF_buf2 _525_ AOI22X1
XAOI22X1_50 gnd vdd _533_ _1045__bF_buf1 _534_ PC_STACK_5__0_ _1041__bF_buf4 AOI22X1
XAOI22X1_51 gnd vdd _540_ _1038__bF_buf10 _541_ PC_STACK_5__1_ _1041__bF_buf4 AOI22X1
XAOI22X1_52 gnd vdd _547_ _1038__bF_buf10 _548_ PC_STACK_5__2_ _1041__bF_buf0 AOI22X1
XAOI22X1_53 gnd vdd _554_ _1045__bF_buf0 _555_ PC_STACK_5__3_ _1041__bF_buf4 AOI22X1
XAOI22X1_54 gnd vdd _561_ _1045__bF_buf0 _562_ PC_STACK_5__4_ _1041__bF_buf3 AOI22X1
XAOI22X1_55 gnd vdd _568_ _1045__bF_buf0 _569_ PC_STACK_5__5_ _1041__bF_buf3 AOI22X1
XAOI22X1_56 gnd vdd _593_ PC_STACK_5__8_ _594_ _1045__bF_buf0 _591_ AOI22X1
XAOI22X1_57 gnd vdd _1074_ _1038__bF_buf8 _1075_ PC_STACK_6__1_ _1041__bF_buf1 AOI22X1
XAOI22X1_58 gnd vdd _593_ PC_STACK_5__9_ _600_ _1045__bF_buf0 _599_ AOI22X1
XAOI22X1_59 gnd vdd _606_ _1045__bF_buf6 _607_ PC_STACK_4__0_ _1041__bF_buf9 AOI22X1
XAOI22X1_60 gnd vdd _613_ _1038__bF_buf10 _614_ PC_STACK_4__1_ _1041__bF_buf4 AOI22X1
XAOI22X1_61 gnd vdd _620_ _1038__bF_buf7 _621_ PC_STACK_4__2_ _1041__bF_buf1 AOI22X1
XAOI22X1_62 gnd vdd _627_ _1045__bF_buf6 _628_ PC_STACK_4__3_ _1041__bF_buf2 AOI22X1
XAOI22X1_63 gnd vdd _634_ _1045__bF_buf4 _635_ PC_STACK_4__4_ _1041__bF_buf1 AOI22X1
XAOI22X1_64 gnd vdd _641_ _1045__bF_buf5 _642_ PC_STACK_4__5_ _1041__bF_buf9 AOI22X1
XAOI22X1_65 gnd vdd _1045__bF_buf0 _650_ _651_ _648_ _1038__bF_buf5 AOI22X1
XAOI22X1_66 gnd vdd _666_ PC_STACK_4__8_ _667_ _1045__bF_buf5 _664_ AOI22X1
XAOI22X1_67 gnd vdd _666_ PC_STACK_4__9_ _672_ _1045__bF_buf5 _671_ AOI22X1
XAOI22X1_68 gnd vdd PC_STACK_9__2_ _997__bF_buf2 _1088_ _984_ PC_STACK_4__2_ AOI22X1
XAOI22X1_69 gnd vdd _678_ _1045__bF_buf9 _679_ PC_STACK_3__0_ _1041__bF_buf1 AOI22X1
XAOI22X1_70 gnd vdd _685_ _1038__bF_buf8 _686_ PC_STACK_3__1_ _1041__bF_buf1 AOI22X1
XAOI22X1_71 gnd vdd _692_ _1038__bF_buf1 _693_ PC_STACK_3__2_ _1041__bF_buf6 AOI22X1
XAOI22X1_72 gnd vdd _699_ _1045__bF_buf9 _700_ PC_STACK_3__3_ _1041__bF_buf10 AOI22X1
XAOI22X1_73 gnd vdd _706_ _1045__bF_buf9 _707_ PC_STACK_3__4_ _1041__bF_buf10 AOI22X1
XAOI22X1_74 gnd vdd _713_ _1045__bF_buf9 _714_ PC_STACK_3__5_ _1041__bF_buf1 AOI22X1
XAOI22X1_75 gnd vdd _1045__bF_buf0 _722_ _723_ _720_ _1038__bF_buf9 AOI22X1
XAOI22X1_76 gnd vdd _738_ PC_STACK_3__8_ _739_ _1045__bF_buf5 _736_ AOI22X1
XAOI22X1_77 gnd vdd _738_ PC_STACK_3__9_ _744_ _1045__bF_buf10 _743_ AOI22X1
XAOI22X1_78 gnd vdd _750_ _1045__bF_buf4 _751_ PC_STACK_2__0_ _1041__bF_buf1 AOI22X1
XAOI22X1_79 gnd vdd _987__bF_buf3 PC_STACK_5__2_ _1089_ PC_STACK_12__2_ _992__bF_buf2 AOI22X1
XAOI22X1_80 gnd vdd _757_ _1038__bF_buf7 _758_ PC_STACK_2__1_ _1041__bF_buf6 AOI22X1
XAOI22X1_81 gnd vdd _764_ _1038__bF_buf7 _765_ PC_STACK_2__2_ _1041__bF_buf6 AOI22X1
XAOI22X1_82 gnd vdd _771_ _1045__bF_buf4 _772_ PC_STACK_2__3_ _1041__bF_buf1 AOI22X1
XAOI22X1_83 gnd vdd _778_ _1045__bF_buf4 _779_ PC_STACK_2__4_ _1041__bF_buf1 AOI22X1
XAOI22X1_84 gnd vdd _1045__bF_buf5 _796_ _797_ _794_ _1038__bF_buf9 AOI22X1
XAOI22X1_85 gnd vdd _811_ PC_STACK_2__8_ _812_ _1045__bF_buf10 _810_ AOI22X1
XAOI22X1_86 gnd vdd _811_ PC_STACK_2__9_ _817_ _1045__bF_buf10 _816_ AOI22X1
XAOI22X1_87 gnd vdd _823_ _1045__bF_buf6 _824_ PC_STACK_1__0_ _1041__bF_buf9 AOI22X1
XAOI22X1_88 gnd vdd _830_ _1038__bF_buf8 _831_ PC_STACK_1__1_ _1041__bF_buf9 AOI22X1
XAOI22X1_89 gnd vdd _837_ _1038__bF_buf3 _838_ PC_STACK_1__2_ _1041__bF_buf9 AOI22X1
XAOI22X1_90 gnd vdd PC_STACK_6__2_ _1102__bF_buf3 _1103_ _1000__bF_buf1 PC_STACK_10__2_ AOI22X1
XAOI22X1_91 gnd vdd _844_ _1045__bF_buf10 _845_ PC_STACK_1__3_ _1041__bF_buf10 AOI22X1
XAOI22X1_92 gnd vdd _851_ _1045__bF_buf10 _852_ PC_STACK_1__4_ _1041__bF_buf10 AOI22X1
XAOI22X1_93 gnd vdd _1045__bF_buf5 _869_ _870_ _867_ _1038__bF_buf5 AOI22X1
XAOI22X1_94 gnd vdd _884_ PC_STACK_1__8_ _885_ _1045__bF_buf10 _883_ AOI22X1
XAOI22X1_95 gnd vdd _884_ PC_STACK_1__9_ _890_ _1045__bF_buf10 _889_ AOI22X1
XAOI22X1_96 gnd vdd _896_ _1045__bF_buf8 _897_ PC_STACK_0__0_ _1041__bF_buf6 AOI22X1
XAOI22X1_97 gnd vdd _903_ _1038__bF_buf7 _904_ PC_STACK_0__1_ _1041__bF_buf6 AOI22X1
XAOI22X1_98 gnd vdd _910_ _1038__bF_buf7 _911_ PC_STACK_0__2_ _1041__bF_buf6 AOI22X1
XAOI22X1_99 gnd vdd _917_ _1045__bF_buf4 _918_ PC_STACK_0__3_ _1041__bF_buf6 AOI22X1
XAOI22X1_100 gnd vdd _924_ _1045__bF_buf8 _925_ PC_STACK_0__4_ _1041__bF_buf6 AOI22X1
XAOI22X1_101 gnd vdd _1104_ PC_STACK_7__2_ _1105_ PC_STACK_1__2_ _990__bF_buf1 AOI22X1
XAOI22X1_102 gnd vdd _931_ _1045__bF_buf8 _932_ PC_STACK_0__5_ _1041__bF_buf6 AOI22X1
XAOI22X1_103 gnd vdd _1045__bF_buf0 _940_ _941_ _938_ _1038__bF_buf2 AOI22X1
XAOI22X1_104 gnd vdd _955_ PC_STACK_0__8_ _956_ _954_ _1045__bF_buf6 AOI22X1
XAOI22X1_105 gnd vdd _955_ PC_STACK_0__9_ _961_ _960_ _1045__bF_buf6 AOI22X1
XAOI22X1_106 gnd vdd _990__bF_buf1 PC_STACK_1__0_ _993_ PC_STACK_12__0_ _992__bF_buf1 AOI22X1
XAOI22X1_107 gnd vdd _1104_ PC_STACK_7__0_ _1113_ PC_STACK_6__0_ _1102__bF_buf3 AOI22X1
XAOI22X1_108 gnd vdd _1104_ PC_STACK_7__1_ _1129_ PC_STACK_6__1_ _1102__bF_buf3 AOI22X1
XAOI22X1_109 gnd vdd _1149_ _1038__bF_buf3 _1150_ PC_STACK_6__2_ _1041__bF_buf2 AOI22X1
XAOI22X1_110 gnd vdd PC_STACK_9__3_ _997__bF_buf2 _1158_ _984_ PC_STACK_4__3_ AOI22X1
XAOI22X1_111 gnd vdd _987__bF_buf3 PC_STACK_5__3_ _1159_ PC_STACK_12__3_ _992__bF_buf2 AOI22X1
XAOI22X1_112 gnd vdd _1189_ _1045__bF_buf9 _1190_ PC_STACK_6__3_ _1041__bF_buf10 AOI22X1
XAOI22X1_113 gnd vdd _1191_ PC_STACK_2__4_ _1192_ PC_STACK_4__4_ _984_ AOI22X1
XAOI22X1_114 gnd vdd _1025_ PC_STACK_0__4_ _1193_ PC_STACK_14__4_ _1023_ AOI22X1
XAOI22X1_115 gnd vdd _1104_ PC_STACK_7__4_ _1195_ PC_STACK_6__4_ _1102__bF_buf3 AOI22X1
XAOI22X1_116 gnd vdd _990__bF_buf0 PC_STACK_1__4_ _1197_ PC_STACK_3__4_ _1196_ AOI22X1
XAOI22X1_117 gnd vdd PC_STACK_10__0_ _1000__bF_buf1 _1001_ _997__bF_buf1 PC_STACK_9__0_ AOI22X1
XAOI22X1_118 gnd vdd _1000__bF_buf2 PC_STACK_10__4_ _1207_ PC_STACK_11__4_ _1026_ AOI22X1
XAOI22X1_119 gnd vdd _987__bF_buf3 PC_STACK_5__4_ _1208_ PC_STACK_12__4_ _992__bF_buf2 AOI22X1
XAOI22X1_120 gnd vdd _1221_ _1045__bF_buf9 _1222_ PC_STACK_6__4_ _1041__bF_buf10 AOI22X1
XAOI22X1_121 gnd vdd _997__bF_buf2 PC_STACK_9__5_ _1223_ PC_STACK_13__5_ _1022_ AOI22X1
XAOI22X1_122 gnd vdd _1102__bF_buf3 PC_STACK_6__5_ _1224_ PC_STACK_12__5_ _992__bF_buf1 AOI22X1
XAOI22X1_123 gnd vdd _1000__bF_buf1 PC_STACK_10__5_ _1225_ PC_STACK_11__5_ _1026_ AOI22X1
XAOI22X1_124 gnd vdd _1004__bF_buf0 PC_STACK_8__5_ _1226_ PC_STACK_15__5_ _1003_ AOI22X1
XAOI22X1_125 gnd vdd _1191_ PC_STACK_2__5_ _1229_ PC_STACK_3__5_ _1196_ AOI22X1
XAOI22X1_126 gnd vdd PC_STACK_1__5_ _990__bF_buf0 _1230_ _984_ PC_STACK_4__5_ AOI22X1
XAOI22X1_127 gnd vdd _1025_ PC_STACK_0__5_ _1232_ PC_STACK_14__5_ _1023_ AOI22X1
XAOI22X1_128 gnd vdd _1004__bF_buf0 PC_STACK_8__0_ _1005_ PC_STACK_15__0_ _1003_ AOI22X1
XAOI22X1_129 gnd vdd _1104_ PC_STACK_7__5_ _1233_ PC_STACK_5__5_ _987__bF_buf2 AOI22X1
XAOI22X1_130 gnd vdd _1246_ _1045__bF_buf9 _1247_ PC_STACK_6__5_ _1041__bF_buf10 AOI22X1
XAOI22X1_131 gnd vdd _1104_ PC_STACK_7__6_ _1256_ PC_STACK_5__6_ _987__bF_buf1 AOI22X1
XAOI22X1_132 gnd vdd _1102__bF_buf1 PC_STACK_6__6_ _1257_ PC_STACK_12__6_ _992__bF_buf0 AOI22X1
XAOI22X1_133 gnd vdd _990__bF_buf2 PC_STACK_1__6_ _1266_ PC_STACK_3__6_ _1196_ AOI22X1
XAOI22X1_134 gnd vdd _1000__bF_buf3 PC_STACK_10__6_ _1267_ PC_STACK_0__6_ _1025_ AOI22X1
XAOI22X1_135 gnd vdd _1045__bF_buf10 _1282_ _1283_ _1279_ _1038__bF_buf5 AOI22X1
XAOI22X1_136 gnd vdd _1000__bF_buf3 PC_STACK_10__7_ _1291_ PC_STACK_11__7_ _1026_ AOI22X1
XAOI22X1_137 gnd vdd _1004__bF_buf2 PC_STACK_8__7_ _1292_ PC_STACK_14__7_ _1023_ AOI22X1
XAOI22X1_138 gnd vdd _984_ PC_STACK_4__7_ _1294_ PC_STACK_12__7_ _992__bF_buf3 AOI22X1
XAOI22X1_139 gnd vdd PC_STACK_14__0_ _1023_ _1024_ _1022_ PC_STACK_13__0_ AOI22X1
XAOI22X1_140 gnd vdd _1191_ PC_STACK_2__7_ _1295_ PC_STACK_6__7_ _1102__bF_buf2 AOI22X1
XAOI22X1_141 gnd vdd _1025_ PC_STACK_0__7_ _1296_ PC_STACK_15__7_ _1003_ AOI22X1
XAOI22X1_142 gnd vdd PC_STACK_5__7_ _987__bF_buf2 _1297_ _990__bF_buf2 PC_STACK_1__7_ AOI22X1
XAOI22X1_143 gnd vdd PC_STACK_9__8_ _997__bF_buf0 _1318_ _1004__bF_buf3 PC_STACK_8__8_ AOI22X1
XAOI22X1_144 gnd vdd _1000__bF_buf2 PC_STACK_10__8_ _1319_ PC_STACK_11__8_ _1026_ AOI22X1
XAOI22X1_145 gnd vdd _987__bF_buf2 PC_STACK_5__8_ _1336_ PC_STACK_3__8_ _1196_ AOI22X1
XAOI22X1_146 gnd vdd _1045__bF_buf10 _1346_ _1348_ _1347_ PC_STACK_6__8_ AOI22X1
XAOI22X1_147 gnd vdd PC_STACK_11__9_ _1026_ _1350_ _1023_ PC_STACK_14__9_ AOI22X1
XAOI22X1_148 gnd vdd _997__bF_buf3 PC_STACK_9__9_ _1351_ PC_STACK_15__9_ _1003_ AOI22X1
XAOI22X1_149 gnd vdd PC_STACK_5__9_ _987__bF_buf2 _1359_ _990__bF_buf2 PC_STACK_1__9_ AOI22X1
XAOI22X1_150 gnd vdd _1025_ PC_STACK_0__0_ _1027_ PC_STACK_11__0_ _1026_ AOI22X1
XAOI22X1_151 gnd vdd PC_STACK_10__9_ _1000__bF_buf0 _1360_ _1004__bF_buf3 PC_STACK_8__9_ AOI22X1
XAOI22X1_152 gnd vdd _1102__bF_buf0 PC_STACK_6__9_ _1362_ PC_STACK_3__9_ _1196_ AOI22X1
XAOI22X1_153 gnd vdd _1191_ PC_STACK_2__9_ _1363_ PC_STACK_12__9_ _992__bF_buf1 AOI22X1
XAOI22X1_154 gnd vdd _1365_ _1358_ _1543__9_ _1349_ _1025_ AOI22X1
XAOI22X1_155 gnd vdd _1045__bF_buf10 _1374_ _1375_ _1347_ PC_STACK_6__9_ AOI22X1
XAOI22X1_156 gnd vdd _1381_ _1045__bF_buf6 _1382_ PC_STACK_12__0_ _1041__bF_buf9 AOI22X1
XAOI22X1_157 gnd vdd _1388_ _1038__bF_buf5 _1389_ PC_STACK_12__1_ _1041__bF_buf9 AOI22X1
XAOI22X1_158 gnd vdd _1395_ _1038__bF_buf10 _1396_ PC_STACK_12__2_ _1041__bF_buf4 AOI22X1
XAOI22X1_159 gnd vdd _1402_ _1045__bF_buf6 _1403_ PC_STACK_12__3_ _1041__bF_buf9 AOI22X1
XAOI22X1_160 gnd vdd _1409_ _1045__bF_buf5 _1410_ PC_STACK_12__4_ _1041__bF_buf9 AOI22X1
XAOI22X1_161 gnd vdd _1044_ _1045__bF_buf4 _1046_ PC_STACK_6__0_ _1041__bF_buf6 AOI22X1
XAOI22X1_162 gnd vdd _1416_ _1045__bF_buf5 _1417_ PC_STACK_12__5_ _1041__bF_buf9 AOI22X1
XAOI22X1_163 gnd vdd _1045__bF_buf5 _1426_ _1427_ _1424_ _1038__bF_buf5 AOI22X1
XAOI22X1_164 gnd vdd _1443_ PC_STACK_12__8_ _1444_ _1045__bF_buf0 _1441_ AOI22X1
XAOI22X1_165 gnd vdd _1443_ PC_STACK_12__9_ _1449_ _1045__bF_buf5 _1448_ AOI22X1
XAOI22X1_166 gnd vdd _1455_ _1045__bF_buf6 _1456_ PC_STACK_13__0_ _1041__bF_buf0 AOI22X1
XAOI22X1_167 gnd vdd _1462_ _1038__bF_buf0 _1463_ PC_STACK_13__1_ _1041__bF_buf2 AOI22X1
XAOI22X1_168 gnd vdd _1469_ _1038__bF_buf0 _1470_ PC_STACK_13__2_ _1041__bF_buf7 AOI22X1
XAOI22X1_169 gnd vdd _1476_ _1045__bF_buf6 _1477_ PC_STACK_13__3_ _1041__bF_buf2 AOI22X1
XAOI22X1_170 gnd vdd _1483_ _1045__bF_buf3 _1484_ PC_STACK_13__4_ _1041__bF_buf5 AOI22X1
XAOI22X1_171 gnd vdd _1490_ _1045__bF_buf2 _1491_ PC_STACK_13__5_ _1041__bF_buf0 AOI22X1
XAOI22X1_172 gnd vdd PC_STACK_5__1_ _987__bF_buf3 _1047_ _984_ PC_STACK_4__1_ AOI22X1
XAOI22X1_173 gnd vdd _1045__bF_buf2 _1500_ _1501_ _1498_ _1038__bF_buf10 AOI22X1
XAOI22X1_174 gnd vdd _1515_ _1045__bF_buf1 _1517_ PC_STACK_13__8_ _1516_ AOI22X1
XAOI22X1_175 gnd vdd _1521_ _1045__bF_buf1 _1522_ PC_STACK_13__9_ _1516_ AOI22X1
XAOI22X1_176 gnd vdd _1528_ _1045__bF_buf1 _1529_ PC_STACK_14__0_ _1041__bF_buf0 AOI22X1
XAOI22X1_177 gnd vdd _1535_ _1038__bF_buf10 _1536_ PC_STACK_14__1_ _1041__bF_buf4 AOI22X1
XAOI22X1_178 gnd vdd _18_ _1038__bF_buf2 _19_ PC_STACK_14__2_ _1041__bF_buf0 AOI22X1
XAOI22X1_179 gnd vdd _25_ _1045__bF_buf0 _26_ PC_STACK_14__3_ _1041__bF_buf8 AOI22X1
XAOI22X1_180 gnd vdd _32_ _1045__bF_buf4 _33_ PC_STACK_14__4_ _1041__bF_buf6 AOI22X1
XAOI22X1_181 gnd vdd _39_ _1045__bF_buf4 _40_ PC_STACK_14__5_ _1041__bF_buf6 AOI22X1
XAOI22X1_182 gnd vdd _1045__bF_buf1 _48_ _49_ _46_ _1038__bF_buf2 AOI22X1
XAOI22X1_183 gnd vdd _990__bF_buf1 PC_STACK_1__1_ _1048_ PC_STACK_12__1_ _992__bF_buf1 AOI22X1
XAOI22X1_184 gnd vdd _62_ _1045__bF_buf1 _64_ PC_STACK_14__8_ _63_ AOI22X1
XAOI22X1_185 gnd vdd _68_ _1045__bF_buf1 _69_ PC_STACK_14__9_ _63_ AOI22X1
XAOI22X1_186 gnd vdd _98_ _1045__bF_buf4 _99_ PC_STACK_7__0_ _1041__bF_buf1 AOI22X1
XAOI22X1_187 gnd vdd _105_ _1038__bF_buf8 _106_ PC_STACK_7__1_ _1041__bF_buf1 AOI22X1
XAOI22X1_188 gnd vdd _112_ _1038__bF_buf8 _113_ PC_STACK_7__2_ _1041__bF_buf9 AOI22X1
XAOI22X1_189 gnd vdd _119_ _1045__bF_buf9 _120_ PC_STACK_7__3_ _1041__bF_buf10 AOI22X1
XAOI22X1_190 gnd vdd _126_ _1045__bF_buf9 _127_ PC_STACK_7__4_ _1041__bF_buf10 AOI22X1
XAOI22X1_191 gnd vdd _1045__bF_buf0 _144_ _145_ _142_ _1038__bF_buf9 AOI22X1
XAOI22X1_192 gnd vdd _159_ PC_STACK_7__8_ _160_ _1045__bF_buf10 _158_ AOI22X1
XAOI22X1_193 gnd vdd _159_ PC_STACK_7__9_ _165_ _1045__bF_buf10 _164_ AOI22X1
XBUFX2_1 vdd gnd _1542__0_ _0_<0> BUFX2
XBUFX2_2 vdd gnd _1542__9_ _0_<9> BUFX2
XBUFX2_3 vdd gnd _1542__10_ _0_<10> BUFX2
XBUFX2_4 vdd gnd _1542__11_ _0_<11> BUFX2
XBUFX2_5 vdd gnd _1542__12_ _0_<12> BUFX2
XBUFX2_6 vdd gnd _1542__13_ _0_<13> BUFX2
XBUFX2_7 vdd gnd _1542__14_ _0_<14> BUFX2
XBUFX2_8 vdd gnd IDATA_CORE_out<15> _0_<15> BUFX2
XBUFX2_9 vdd gnd _1543__0_ _1_<0> BUFX2
XBUFX2_10 vdd gnd _1543__1_ _1_<1> BUFX2
XBUFX2_11 vdd gnd _1543__2_ _1_<2> BUFX2
XBUFX2_12 vdd gnd _1542__1_ _0_<1> BUFX2
XBUFX2_13 vdd gnd _1543__3_ _1_<3> BUFX2
XBUFX2_14 vdd gnd _1543__4_ _1_<4> BUFX2
XBUFX2_15 vdd gnd _1543__5_ _1_<5> BUFX2
XBUFX2_16 vdd gnd _1543__6_ _1_<6> BUFX2
XBUFX2_17 vdd gnd _1543__7_ _1_<7> BUFX2
XBUFX2_18 vdd gnd _1543__8_ _1_<8> BUFX2
XBUFX2_19 vdd gnd _1543__9_ _1_<9> BUFX2
XBUFX2_20 vdd gnd _1544_ _2_ BUFX2
XBUFX2_21 vdd gnd _1545__0_ _3_<0> BUFX2
XBUFX2_22 vdd gnd _1545__1_ _3_<1> BUFX2
XBUFX2_23 vdd gnd _1542__2_ _0_<2> BUFX2
XBUFX2_24 vdd gnd _1545__2_ _3_<2> BUFX2
XBUFX2_25 vdd gnd _1545__3_ _3_<3> BUFX2
XBUFX2_26 vdd gnd _1545__4_ _3_<4> BUFX2
XBUFX2_27 vdd gnd _1545__5_ _3_<5> BUFX2
XBUFX2_28 vdd gnd _1545__6_ _3_<6> BUFX2
XBUFX2_29 vdd gnd _1545__7_ _3_<7> BUFX2
XBUFX2_30 vdd gnd _1545__8_ _3_<8> BUFX2
XBUFX2_31 vdd gnd _1545__9_ _3_<9> BUFX2
XBUFX2_32 vdd gnd _1542__3_ _0_<3> BUFX2
XBUFX2_33 vdd gnd _1542__4_ _0_<4> BUFX2
XBUFX2_34 vdd gnd _1542__5_ _0_<5> BUFX2
XBUFX2_35 vdd gnd _1542__6_ _0_<6> BUFX2
XBUFX2_36 vdd gnd _1542__7_ _0_<7> BUFX2
XBUFX2_37 vdd gnd _1542__8_ _0_<8> BUFX2
XBUFX4_1 vdd gnd _1116_ _1116__bF_buf4 BUFX4
XBUFX4_2 vdd gnd _999_ _999__bF_buf5 BUFX4
XBUFX4_3 vdd gnd rst rst_bF_buf3 BUFX4
XBUFX4_4 vdd gnd rst rst_bF_buf2 BUFX4
XBUFX4_5 vdd gnd rst rst_bF_buf1 BUFX4
XBUFX4_6 vdd gnd rst rst_bF_buf0 BUFX4
XBUFX4_7 vdd gnd _1109_ _1109__bF_buf4 BUFX4
XBUFX4_8 vdd gnd _1109_ _1109__bF_buf3 BUFX4
XBUFX4_9 vdd gnd _1109_ _1109__bF_buf2 BUFX4
XBUFX4_10 vdd gnd _1109_ _1109__bF_buf1 BUFX4
XBUFX4_11 vdd gnd _1109_ _1109__bF_buf0 BUFX4
XBUFX4_12 vdd gnd _992_ _992__bF_buf3 BUFX4
XBUFX4_13 vdd gnd _999_ _999__bF_buf4 BUFX4
XBUFX4_14 vdd gnd _992_ _992__bF_buf2 BUFX4
XBUFX4_15 vdd gnd _992_ _992__bF_buf1 BUFX4
XBUFX4_16 vdd gnd _992_ _992__bF_buf0 BUFX4
XBUFX4_17 vdd gnd _989_ _989__bF_buf5 BUFX4
XBUFX4_18 vdd gnd _989_ _989__bF_buf4 BUFX4
XBUFX4_19 vdd gnd _989_ _989__bF_buf3 BUFX4
XBUFX4_20 vdd gnd _989_ _989__bF_buf2 BUFX4
XBUFX4_21 vdd gnd _989_ _989__bF_buf1 BUFX4
XBUFX4_22 vdd gnd _989_ _989__bF_buf0 BUFX4
XBUFX4_23 vdd gnd _1085_ _1085__bF_buf4 BUFX4
XBUFX4_24 vdd gnd _999_ _999__bF_buf3 BUFX4
XBUFX4_25 vdd gnd _1085_ _1085__bF_buf3 BUFX4
XBUFX4_26 vdd gnd _1085_ _1085__bF_buf2 BUFX4
XBUFX4_27 vdd gnd _1085_ _1085__bF_buf1 BUFX4
XBUFX4_28 vdd gnd _1085_ _1085__bF_buf0 BUFX4
XBUFX4_29 vdd gnd _986_ _986__bF_buf5 BUFX4
XBUFX4_30 vdd gnd _986_ _986__bF_buf4 BUFX4
XBUFX4_31 vdd gnd _986_ _986__bF_buf3 BUFX4
XBUFX4_32 vdd gnd _986_ _986__bF_buf2 BUFX4
XBUFX4_33 vdd gnd _986_ _986__bF_buf1 BUFX4
XBUFX4_34 vdd gnd _986_ _986__bF_buf0 BUFX4
XBUFX4_35 vdd gnd _999_ _999__bF_buf2 BUFX4
XBUFX4_36 vdd gnd _983_ _983__bF_buf6 BUFX4
XBUFX4_37 vdd gnd _983_ _983__bF_buf5 BUFX4
XBUFX4_38 vdd gnd _983_ _983__bF_buf4 BUFX4
XBUFX4_39 vdd gnd _983_ _983__bF_buf3 BUFX4
XBUFX4_40 vdd gnd _983_ _983__bF_buf2 BUFX4
XBUFX4_41 vdd gnd _983_ _983__bF_buf1 BUFX4
XBUFX4_42 vdd gnd _983_ _983__bF_buf0 BUFX4
XBUFX4_43 vdd gnd _1041_ _1041__bF_buf10 BUFX4
XBUFX4_44 vdd gnd _1041_ _1041__bF_buf9 BUFX4
XBUFX4_45 vdd gnd _1041_ _1041__bF_buf8 BUFX4
XBUFX4_46 vdd gnd _999_ _999__bF_buf1 BUFX4
XBUFX4_47 vdd gnd _1041_ _1041__bF_buf7 BUFX4
XBUFX4_48 vdd gnd _1041_ _1041__bF_buf6 BUFX4
XBUFX4_49 vdd gnd _1041_ _1041__bF_buf5 BUFX4
XBUFX4_50 vdd gnd _1041_ _1041__bF_buf4 BUFX4
XBUFX4_51 vdd gnd _1041_ _1041__bF_buf3 BUFX4
XBUFX4_52 vdd gnd _1041_ _1041__bF_buf2 BUFX4
XBUFX4_53 vdd gnd _1041_ _1041__bF_buf1 BUFX4
XBUFX4_54 vdd gnd _1041_ _1041__bF_buf0 BUFX4
XBUFX4_55 vdd gnd _1038_ _1038__bF_buf10 BUFX4
XBUFX4_56 vdd gnd _1038_ _1038__bF_buf9 BUFX4
XBUFX4_57 vdd gnd _999_ _999__bF_buf0 BUFX4
XBUFX4_58 vdd gnd _1038_ _1038__bF_buf8 BUFX4
XBUFX4_59 vdd gnd _1038_ _1038__bF_buf7 BUFX4
XBUFX4_60 vdd gnd _1038_ _1038__bF_buf6 BUFX4
XBUFX4_61 vdd gnd _1038_ _1038__bF_buf5 BUFX4
XBUFX4_62 vdd gnd _1038_ _1038__bF_buf4 BUFX4
XBUFX4_63 vdd gnd _1038_ _1038__bF_buf3 BUFX4
XBUFX4_64 vdd gnd _1038_ _1038__bF_buf2 BUFX4
XBUFX4_65 vdd gnd _1038_ _1038__bF_buf1 BUFX4
XBUFX4_66 vdd gnd _1038_ _1038__bF_buf0 BUFX4
XBUFX4_67 vdd gnd _1000_ _1000__bF_buf3 BUFX4
XBUFX4_68 vdd gnd _1095_ _1095__bF_buf4 BUFX4
XBUFX4_69 vdd gnd _1000_ _1000__bF_buf2 BUFX4
XBUFX4_70 vdd gnd _1000_ _1000__bF_buf1 BUFX4
XBUFX4_71 vdd gnd _1000_ _1000__bF_buf0 BUFX4
XBUFX4_72 vdd gnd _1099_ _1099__bF_buf4 BUFX4
XBUFX4_73 vdd gnd _1099_ _1099__bF_buf3 BUFX4
XBUFX4_74 vdd gnd _1099_ _1099__bF_buf2 BUFX4
XBUFX4_75 vdd gnd _1099_ _1099__bF_buf1 BUFX4
XBUFX4_76 vdd gnd _1099_ _1099__bF_buf0 BUFX4
XBUFX4_77 vdd gnd _1311_ _1311__bF_buf3 BUFX4
XBUFX4_78 vdd gnd _1311_ _1311__bF_buf2 BUFX4
XBUFX4_79 vdd gnd _1095_ _1095__bF_buf3 BUFX4
XBUFX4_80 vdd gnd _1311_ _1311__bF_buf1 BUFX4
XBUFX4_81 vdd gnd _1311_ _1311__bF_buf0 BUFX4
XBUFX4_82 vdd gnd _1117_ _1117__bF_buf4 BUFX4
XBUFX4_83 vdd gnd _1117_ _1117__bF_buf3 BUFX4
XBUFX4_84 vdd gnd _1117_ _1117__bF_buf2 BUFX4
XBUFX4_85 vdd gnd _1117_ _1117__bF_buf1 BUFX4
XBUFX4_86 vdd gnd _1117_ _1117__bF_buf0 BUFX4
XBUFX4_87 vdd gnd _1020_ _1020__bF_buf4 BUFX4
XBUFX4_88 vdd gnd _1020_ _1020__bF_buf3 BUFX4
XBUFX4_89 vdd gnd _1020_ _1020__bF_buf2 BUFX4
XBUFX4_90 vdd gnd _1095_ _1095__bF_buf2 BUFX4
XBUFX4_91 vdd gnd _1020_ _1020__bF_buf1 BUFX4
XBUFX4_92 vdd gnd _1020_ _1020__bF_buf0 BUFX4
XBUFX4_93 vdd gnd _997_ _997__bF_buf3 BUFX4
XBUFX4_94 vdd gnd _997_ _997__bF_buf2 BUFX4
XBUFX4_95 vdd gnd _997_ _997__bF_buf1 BUFX4
XBUFX4_96 vdd gnd _997_ _997__bF_buf0 BUFX4
XBUFX4_97 vdd gnd _310_ _310__bF_buf3 BUFX4
XBUFX4_98 vdd gnd _310_ _310__bF_buf2 BUFX4
XBUFX4_99 vdd gnd _310_ _310__bF_buf1 BUFX4
XBUFX4_100 vdd gnd _310_ _310__bF_buf0 BUFX4
XBUFX4_101 vdd gnd _1095_ _1095__bF_buf1 BUFX4
XBUFX4_102 vdd gnd _1011_ _1011__bF_buf4 BUFX4
XBUFX4_103 vdd gnd _1011_ _1011__bF_buf3 BUFX4
XBUFX4_104 vdd gnd _1011_ _1011__bF_buf2 BUFX4
XBUFX4_105 vdd gnd _1011_ _1011__bF_buf1 BUFX4
XBUFX4_106 vdd gnd _1011_ _1011__bF_buf0 BUFX4
XBUFX4_107 vdd gnd _991_ _991__bF_buf6 BUFX4
XBUFX4_108 vdd gnd _991_ _991__bF_buf5 BUFX4
XBUFX4_109 vdd gnd _991_ _991__bF_buf4 BUFX4
XBUFX4_110 vdd gnd _991_ _991__bF_buf3 BUFX4
XBUFX4_111 vdd gnd _991_ _991__bF_buf2 BUFX4
XBUFX4_112 vdd gnd _1116_ _1116__bF_buf3 BUFX4
XBUFX4_113 vdd gnd _1095_ _1095__bF_buf0 BUFX4
XBUFX4_114 vdd gnd _991_ _991__bF_buf1 BUFX4
XBUFX4_115 vdd gnd _991_ _991__bF_buf0 BUFX4
XBUFX4_116 vdd gnd _1084_ _1084__bF_buf4 BUFX4
XBUFX4_117 vdd gnd _1084_ _1084__bF_buf3 BUFX4
XBUFX4_118 vdd gnd _1084_ _1084__bF_buf2 BUFX4
XBUFX4_119 vdd gnd _1084_ _1084__bF_buf1 BUFX4
XBUFX4_120 vdd gnd _1084_ _1084__bF_buf0 BUFX4
XBUFX4_121 vdd gnd _1102_ _1102__bF_buf3 BUFX4
XBUFX4_122 vdd gnd _1102_ _1102__bF_buf2 BUFX4