*SPICE netlist created from BLIF module NRISC_REGs by blif2BSpice
.include /usr/local/share/qflow/tech/osu018/osu018_stdcells.sp
.subckt NRISC_REGs vdd gnd REG_D<0> REG_D<1> REG_D<2> REG_D<3> REG_D<4> REG_D<5> REG_D<6> REG_D<7> REG_D<8> REG_D<9> REG_D<10> REG_D<11> REG_D<12> REG_D<13> REG_D<14> REG_D<15> REG_RF1<0> REG_RF1<1> REG_RF1<2> REG_RF1<3> REG_RF2<0> REG_RF2<1> REG_RF2<2> REG_RF2<3> REG_RFD<0> REG_RFD<1> REG_RFD<2> REG_RFD<3> REG_R1<0> REG_R1<1> REG_R1<2> REG_R1<3> REG_R1<4> REG_R1<5> REG_R1<6> REG_R1<7> REG_R1<8> REG_R1<9> REG_R1<10> REG_R1<11> REG_R1<12> REG_R1<13> REG_R1<14> REG_R1<15> REG_Write REG_Interrupt_flag clk rst REG_A<0> REG_A<1> REG_A<2> REG_A<3> REG_A<4> REG_A<5> REG_A<6> REG_A<7> REG_A<8> REG_A<9> REG_A<10> REG_A<11> REG_A<12> REG_A<13> REG_A<14> REG_A<15> REG_B<0> REG_B<1> REG_B<2> REG_B<3> REG_B<4> REG_B<5> REG_B<6> REG_B<7> REG_B<8> REG_B<9> REG_B<10> REG_B<11> REG_B<12> REG_B<13> REG_B<14> REG_B<15> 
XBUFX4_1 vdd gnd clk clk_hier0_bF$buf6 BUFX4
XBUFX4_2 vdd gnd clk clk_hier0_bF$buf5 BUFX4
XBUFX4_3 vdd gnd clk clk_hier0_bF$buf4 BUFX4
XBUFX4_4 vdd gnd clk clk_hier0_bF$buf3 BUFX4
XBUFX4_5 vdd gnd clk clk_hier0_bF$buf2 BUFX4
XBUFX4_6 vdd gnd clk clk_hier0_bF$buf1 BUFX4
XBUFX4_7 vdd gnd clk clk_hier0_bF$buf0 BUFX4
XBUFX4_8 vdd gnd _397_ _397__bF$buf4 BUFX4
XBUFX4_9 vdd gnd _397_ _397__bF$buf3 BUFX4
XBUFX4_10 vdd gnd _397_ _397__bF$buf2 BUFX4
XBUFX4_11 vdd gnd _397_ _397__bF$buf1 BUFX4
XBUFX4_12 vdd gnd _397_ _397__bF$buf0 BUFX4
XBUFX4_13 vdd gnd _644_ _644__bF$buf6 BUFX4
XBUFX4_14 vdd gnd _644_ _644__bF$buf5 BUFX4
XBUFX4_15 vdd gnd _644_ _644__bF$buf4 BUFX4
XBUFX4_16 vdd gnd _644_ _644__bF$buf3 BUFX4
XBUFX4_17 vdd gnd _644_ _644__bF$buf2 BUFX4
XBUFX4_18 vdd gnd _644_ _644__bF$buf1 BUFX4
XBUFX4_19 vdd gnd _644_ _644__bF$buf0 BUFX4
XBUFX4_20 vdd gnd _585_ _585__bF$buf4 BUFX4
XBUFX4_21 vdd gnd _585_ _585__bF$buf3 BUFX4
XBUFX4_22 vdd gnd _585_ _585__bF$buf2 BUFX4
XBUFX4_23 vdd gnd _585_ _585__bF$buf1 BUFX4
XBUFX4_24 vdd gnd _585_ _585__bF$buf0 BUFX4
XBUFX4_25 vdd gnd _603_ _603__bF$buf4 BUFX4
XBUFX4_26 vdd gnd _603_ _603__bF$buf3 BUFX4
XBUFX4_27 vdd gnd _603_ _603__bF$buf2 BUFX4
XBUFX4_28 vdd gnd _603_ _603__bF$buf1 BUFX4
XBUFX4_29 vdd gnd _603_ _603__bF$buf0 BUFX4
XBUFX4_30 vdd gnd _1633_ _1633__bF$buf3 BUFX4
XBUFX4_31 vdd gnd _1633_ _1633__bF$buf2 BUFX4
XBUFX4_32 vdd gnd _1633_ _1633__bF$buf1 BUFX4
XBUFX4_33 vdd gnd _1633_ _1633__bF$buf0 BUFX4
XBUFX4_34 vdd gnd _673_ _673__bF$buf6 BUFX4
XBUFX4_35 vdd gnd _673_ _673__bF$buf5 BUFX4
XBUFX4_36 vdd gnd _673_ _673__bF$buf4 BUFX4
XBUFX4_37 vdd gnd _673_ _673__bF$buf3 BUFX4
XBUFX4_38 vdd gnd _673_ _673__bF$buf2 BUFX4
XBUFX4_39 vdd gnd _673_ _673__bF$buf1 BUFX4
XBUFX4_40 vdd gnd _673_ _673__bF$buf0 BUFX4
XBUFX4_41 vdd gnd _482_ _482__bF$buf4 BUFX4
XBUFX4_42 vdd gnd _482_ _482__bF$buf3 BUFX4
XBUFX4_43 vdd gnd _482_ _482__bF$buf2 BUFX4
XBUFX4_44 vdd gnd _482_ _482__bF$buf1 BUFX4
XBUFX4_45 vdd gnd _482_ _482__bF$buf0 BUFX4
XBUFX4_46 vdd gnd _1627_ _1627__bF$buf4 BUFX4
XBUFX4_47 vdd gnd _1627_ _1627__bF$buf3 BUFX4
XBUFX4_48 vdd gnd _1627_ _1627__bF$buf2 BUFX4
XBUFX4_49 vdd gnd _1627_ _1627__bF$buf1 BUFX4
XBUFX4_50 vdd gnd _1627_ _1627__bF$buf0 BUFX4
XBUFX4_51 vdd gnd _1718_ _1718__bF$buf4 BUFX4
XBUFX4_52 vdd gnd _1718_ _1718__bF$buf3 BUFX4
XBUFX4_53 vdd gnd _1718_ _1718__bF$buf2 BUFX4
XBUFX4_54 vdd gnd _1718_ _1718__bF$buf1 BUFX4
XBUFX4_55 vdd gnd _1718_ _1718__bF$buf0 BUFX4
XBUFX4_56 vdd gnd _1621_ _1621__bF$buf3 BUFX4
XBUFX4_57 vdd gnd _1621_ _1621__bF$buf2 BUFX4
XBUFX4_58 vdd gnd _1621_ _1621__bF$buf1 BUFX4
XBUFX4_59 vdd gnd _1621_ _1621__bF$buf0 BUFX4
XBUFX4_60 vdd gnd clk_hier0_bF$buf2 clk_bF$buf48 BUFX4
XBUFX4_61 vdd gnd clk_hier0_bF$buf3 clk_bF$buf47 BUFX4
XBUFX4_62 vdd gnd clk_hier0_bF$buf4 clk_bF$buf46 BUFX4
XBUFX4_63 vdd gnd clk_hier0_bF$buf2 clk_bF$buf45 BUFX4
XBUFX4_64 vdd gnd clk_hier0_bF$buf5 clk_bF$buf44 BUFX4
XBUFX4_65 vdd gnd clk_hier0_bF$buf6 clk_bF$buf43 BUFX4
XBUFX4_66 vdd gnd clk_hier0_bF$buf0 clk_bF$buf42 BUFX4
XBUFX4_67 vdd gnd clk_hier0_bF$buf4 clk_bF$buf41 BUFX4
XBUFX4_68 vdd gnd clk_hier0_bF$buf2 clk_bF$buf40 BUFX4
XBUFX4_69 vdd gnd clk_hier0_bF$buf4 clk_bF$buf39 BUFX4
XBUFX4_70 vdd gnd clk_hier0_bF$buf4 clk_bF$buf38 BUFX4
XBUFX4_71 vdd gnd clk_hier0_bF$buf1 clk_bF$buf37 BUFX4
XBUFX4_72 vdd gnd clk_hier0_bF$buf0 clk_bF$buf36 BUFX4
XBUFX4_73 vdd gnd clk_hier0_bF$buf4 clk_bF$buf35 BUFX4
XBUFX4_74 vdd gnd clk_hier0_bF$buf1 clk_bF$buf34 BUFX4
XBUFX4_75 vdd gnd clk_hier0_bF$buf5 clk_bF$buf33 BUFX4
XBUFX4_76 vdd gnd clk_hier0_bF$buf2 clk_bF$buf32 BUFX4
XBUFX4_77 vdd gnd clk_hier0_bF$buf2 clk_bF$buf31 BUFX4
XBUFX4_78 vdd gnd clk_hier0_bF$buf5 clk_bF$buf30 BUFX4
XBUFX4_79 vdd gnd clk_hier0_bF$buf5 clk_bF$buf29 BUFX4
XBUFX4_80 vdd gnd clk_hier0_bF$buf1 clk_bF$buf28 BUFX4
XBUFX4_81 vdd gnd clk_hier0_bF$buf0 clk_bF$buf27 BUFX4
XBUFX4_82 vdd gnd clk_hier0_bF$buf4 clk_bF$buf26 BUFX4
XBUFX4_83 vdd gnd clk_hier0_bF$buf4 clk_bF$buf25 BUFX4
XBUFX4_84 vdd gnd clk_hier0_bF$buf5 clk_bF$buf24 BUFX4
XBUFX4_85 vdd gnd clk_hier0_bF$buf6 clk_bF$buf23 BUFX4
XBUFX4_86 vdd gnd clk_hier0_bF$buf6 clk_bF$buf22 BUFX4
XBUFX4_87 vdd gnd clk_hier0_bF$buf1 clk_bF$buf21 BUFX4
XBUFX4_88 vdd gnd clk_hier0_bF$buf3 clk_bF$buf20 BUFX4
XBUFX4_89 vdd gnd clk_hier0_bF$buf6 clk_bF$buf19 BUFX4
XBUFX4_90 vdd gnd clk_hier0_bF$buf1 clk_bF$buf18 BUFX4
XBUFX4_91 vdd gnd clk_hier0_bF$buf3 clk_bF$buf17 BUFX4
XBUFX4_92 vdd gnd clk_hier0_bF$buf6 clk_bF$buf16 BUFX4
XBUFX4_93 vdd gnd clk_hier0_bF$buf1 clk_bF$buf15 BUFX4
XBUFX4_94 vdd gnd clk_hier0_bF$buf0 clk_bF$buf14 BUFX4
XBUFX4_95 vdd gnd clk_hier0_bF$buf3 clk_bF$buf13 BUFX4
XBUFX4_96 vdd gnd clk_hier0_bF$buf2 clk_bF$buf12 BUFX4
XBUFX4_97 vdd gnd clk_hier0_bF$buf0 clk_bF$buf11 BUFX4
XBUFX4_98 vdd gnd clk_hier0_bF$buf5 clk_bF$buf10 BUFX4
XBUFX4_99 vdd gnd clk_hier0_bF$buf2 clk_bF$buf9 BUFX4
XBUFX4_100 vdd gnd clk_hier0_bF$buf0 clk_bF$buf8 BUFX4
XBUFX4_101 vdd gnd clk_hier0_bF$buf0 clk_bF$buf7 BUFX4
XBUFX4_102 vdd gnd clk_hier0_bF$buf3 clk_bF$buf6 BUFX4
XBUFX4_103 vdd gnd clk_hier0_bF$buf6 clk_bF$buf5 BUFX4
XBUFX4_104 vdd gnd clk_hier0_bF$buf3 clk_bF$buf4 BUFX4
XBUFX4_105 vdd gnd clk_hier0_bF$buf6 clk_bF$buf3 BUFX4
XBUFX4_106 vdd gnd clk_hier0_bF$buf5 clk_bF$buf2 BUFX4
XBUFX4_107 vdd gnd clk_hier0_bF$buf1 clk_bF$buf1 BUFX4
XBUFX4_108 vdd gnd clk_hier0_bF$buf3 clk_bF$buf0 BUFX4
XBUFX4_109 vdd gnd _1653_ _1653__bF$buf3 BUFX4
XBUFX4_110 vdd gnd _1653_ _1653__bF$buf2 BUFX4
XBUFX4_111 vdd gnd _1653_ _1653__bF$buf1 BUFX4
XBUFX4_112 vdd gnd _1653_ _1653__bF$buf0 BUFX4
XBUFX4_113 vdd gnd _1268_ _1268__bF$buf6 BUFX4
XBUFX4_114 vdd gnd _1268_ _1268__bF$buf5 BUFX4
XBUFX4_115 vdd gnd _1268_ _1268__bF$buf4 BUFX4
XBUFX4_116 vdd gnd _1268_ _1268__bF$buf3 BUFX4
XBUFX4_117 vdd gnd _1268_ _1268__bF$buf2 BUFX4
XBUFX4_118 vdd gnd _1268_ _1268__bF$buf1 BUFX4
XBUFX4_119 vdd gnd _1268_ _1268__bF$buf0 BUFX4
XBUFX4_120 vdd gnd _1647_ _1647__bF$buf3 BUFX4
XBUFX4_121 vdd gnd _1647_ _1647__bF$buf2 BUFX4
XBUFX4_122 vdd gnd _1647_ _1647__bF$buf1 BUFX4
XBUFX4_123 vdd gnd _1647_ _1647__bF$buf0 BUFX4
XBUFX4_124 vdd gnd _1641_ _1641__bF$buf3 BUFX4
XBUFX4_125 vdd gnd _1641_ _1641__bF$buf2 BUFX4
XBUFX4_126 vdd gnd _1641_ _1641__bF$buf1 BUFX4
XBUFX4_127 vdd gnd _1641_ _1641__bF$buf0 BUFX4
XBUFX4_128 vdd gnd _1735_ _1735__bF$buf3 BUFX4
XBUFX4_129 vdd gnd _1735_ _1735__bF$buf2 BUFX4
XBUFX4_130 vdd gnd _1735_ _1735__bF$buf1 BUFX4
XBUFX4_131 vdd gnd _1735_ _1735__bF$buf0 BUFX4
XBUFX4_132 vdd gnd _1294_ _1294__bF$buf6 BUFX4
XBUFX4_133 vdd gnd _1294_ _1294__bF$buf5 BUFX4
XBUFX4_134 vdd gnd _1294_ _1294__bF$buf4 BUFX4
XBUFX4_135 vdd gnd _1294_ _1294__bF$buf3 BUFX4
XBUFX4_136 vdd gnd _1294_ _1294__bF$buf2 BUFX4
XBUFX4_137 vdd gnd _1294_ _1294__bF$buf1 BUFX4
XBUFX4_138 vdd gnd _1294_ _1294__bF$buf0 BUFX4
XBUFX4_139 vdd gnd _414_ _414__bF$buf4 BUFX4
XBUFX4_140 vdd gnd _414_ _414__bF$buf3 BUFX4
XBUFX4_141 vdd gnd _414_ _414__bF$buf2 BUFX4
XBUFX4_142 vdd gnd _414_ _414__bF$buf1 BUFX4
XBUFX4_143 vdd gnd _414_ _414__bF$buf0 BUFX4
XBUFX4_144 vdd gnd _1635_ _1635__bF$buf3 BUFX4
XBUFX4_145 vdd gnd _1635_ _1635__bF$buf2 BUFX4
XBUFX4_146 vdd gnd _1635_ _1635__bF$buf1 BUFX4
XBUFX4_147 vdd gnd _1635_ _1635__bF$buf0 BUFX4
XBUFX4_148 vdd gnd _640_ _640__bF$buf6 BUFX4
XBUFX4_149 vdd gnd _640_ _640__bF$buf5 BUFX4
XBUFX4_150 vdd gnd _640_ _640__bF$buf4 BUFX4
XBUFX4_151 vdd gnd _640_ _640__bF$buf3 BUFX4
XBUFX4_152 vdd gnd _640_ _640__bF$buf2 BUFX4
XBUFX4_153 vdd gnd _640_ _640__bF$buf1 BUFX4
XBUFX4_154 vdd gnd _640_ _640__bF$buf0 BUFX4
XBUFX4_155 vdd gnd _1629_ _1629__bF$buf3 BUFX4
XBUFX4_156 vdd gnd _1629_ _1629__bF$buf2 BUFX4
XBUFX4_157 vdd gnd _1629_ _1629__bF$buf1 BUFX4
XBUFX4_158 vdd gnd _1629_ _1629__bF$buf0 BUFX4
XBUFX4_159 vdd gnd _1699_ _1699__bF$buf4 BUFX4
XBUFX4_160 vdd gnd _1699_ _1699__bF$buf3 BUFX4
XBUFX4_161 vdd gnd _1699_ _1699__bF$buf2 BUFX4
XBUFX4_162 vdd gnd _1699_ _1699__bF$buf1 BUFX4
XBUFX4_163 vdd gnd _1699_ _1699__bF$buf0 BUFX4
XBUFX4_164 vdd gnd _1661_ _1661__bF$buf4 BUFX4
XBUFX4_165 vdd gnd _1661_ _1661__bF$buf3 BUFX4
XBUFX4_166 vdd gnd _1661_ _1661__bF$buf2 BUFX4
XBUFX4_167 vdd gnd _1661_ _1661__bF$buf1 BUFX4
XBUFX4_168 vdd gnd _1661_ _1661__bF$buf0 BUFX4
XBUFX4_169 vdd gnd _1655_ _1655__bF$buf3 BUFX4
XBUFX4_170 vdd gnd _1655_ _1655__bF$buf2 BUFX4
XBUFX4_171 vdd gnd _1655_ _1655__bF$buf1 BUFX4
XBUFX4_172 vdd gnd _1655_ _1655__bF$buf0 BUFX4
XBUFX4_173 vdd gnd _431_ _431__bF$buf4 BUFX4
XBUFX4_174 vdd gnd _431_ _431__bF$buf3 BUFX4
XBUFX4_175 vdd gnd _431_ _431__bF$buf2 BUFX4
XBUFX4_176 vdd gnd _431_ _431__bF$buf1 BUFX4
XBUFX4_177 vdd gnd _431_ _431__bF$buf0 BUFX4
XBUFX4_178 vdd gnd _1649_ _1649__bF$buf3 BUFX4
XBUFX4_179 vdd gnd _1649_ _1649__bF$buf2 BUFX4
XBUFX4_180 vdd gnd _1649_ _1649__bF$buf1 BUFX4
XBUFX4_181 vdd gnd _1649_ _1649__bF$buf0 BUFX4
XBUFX4_182 vdd gnd _1264_ _1264__bF$buf4 BUFX4
XBUFX4_183 vdd gnd _1264_ _1264__bF$buf3 BUFX4
XBUFX4_184 vdd gnd _1264_ _1264__bF$buf2 BUFX4
XBUFX4_185 vdd gnd _1264_ _1264__bF$buf1 BUFX4
XBUFX4_186 vdd gnd _1264_ _1264__bF$buf0 BUFX4
XBUFX4_187 vdd gnd _1587_ _1587__bF$buf4 BUFX4
XBUFX4_188 vdd gnd _1587_ _1587__bF$buf3 BUFX4
XBUFX4_189 vdd gnd _1587_ _1587__bF$buf2 BUFX4
XBUFX4_190 vdd gnd _1587_ _1587__bF$buf1 BUFX4
XBUFX4_191 vdd gnd _1587_ _1587__bF$buf0 BUFX4
XBUFX4_192 vdd gnd _1643_ _1643__bF$buf3 BUFX4
XBUFX4_193 vdd gnd _1643_ _1643__bF$buf2 BUFX4
XBUFX4_194 vdd gnd _1643_ _1643__bF$buf1 BUFX4
XBUFX4_195 vdd gnd _1643_ _1643__bF$buf0 BUFX4
XBUFX4_196 vdd gnd _1681_ _1681__bF$buf4 BUFX4
XBUFX4_197 vdd gnd _1681_ _1681__bF$buf3 BUFX4
XBUFX4_198 vdd gnd _1681_ _1681__bF$buf2 BUFX4
XBUFX4_199 vdd gnd _1681_ _1681__bF$buf1 BUFX4
XBUFX4_200 vdd gnd _1681_ _1681__bF$buf0 BUFX4
XBUFX4_201 vdd gnd _1637_ _1637__bF$buf3 BUFX4
XBUFX4_202 vdd gnd _1637_ _1637__bF$buf2 BUFX4
XBUFX4_203 vdd gnd _1637_ _1637__bF$buf1 BUFX4
XBUFX4_204 vdd gnd _1637_ _1637__bF$buf0 BUFX4
XBUFX4_205 vdd gnd _448_ _448__bF$buf4 BUFX4
XBUFX4_206 vdd gnd _448_ _448__bF$buf3 BUFX4
XBUFX4_207 vdd gnd _448_ _448__bF$buf2 BUFX4
XBUFX4_208 vdd gnd _448_ _448__bF$buf1 BUFX4
XBUFX4_209 vdd gnd _448_ _448__bF$buf0 BUFX4
XBUFX4_210 vdd gnd _1631_ _1631__bF$buf3 BUFX4
XBUFX4_211 vdd gnd _1631_ _1631__bF$buf2 BUFX4
XBUFX4_212 vdd gnd _1631_ _1631__bF$buf1 BUFX4
XBUFX4_213 vdd gnd _1631_ _1631__bF$buf0 BUFX4
XBUFX4_214 vdd gnd _636_ _636__bF$buf4 BUFX4
XBUFX4_215 vdd gnd _636_ _636__bF$buf3 BUFX4
XBUFX4_216 vdd gnd _636_ _636__bF$buf2 BUFX4
XBUFX4_217 vdd gnd _636_ _636__bF$buf1 BUFX4
XBUFX4_218 vdd gnd _636_ _636__bF$buf0 BUFX4
XBUFX4_219 vdd gnd _501_ _501__bF$buf4 BUFX4
XBUFX4_220 vdd gnd _501_ _501__bF$buf3 BUFX4
XBUFX4_221 vdd gnd _501_ _501__bF$buf2 BUFX4
XBUFX4_222 vdd gnd _501_ _501__bF$buf1 BUFX4
XBUFX4_223 vdd gnd _501_ _501__bF$buf0 BUFX4
XBUFX4_224 vdd gnd _536_ _536__bF$buf4 BUFX4
XBUFX4_225 vdd gnd _536_ _536__bF$buf3 BUFX4
XBUFX4_226 vdd gnd _536_ _536__bF$buf2 BUFX4
XBUFX4_227 vdd gnd _536_ _536__bF$buf1 BUFX4
XBUFX4_228 vdd gnd _536_ _536__bF$buf0 BUFX4
XBUFX4_229 vdd gnd _1278_ _1278__bF$buf5 BUFX4
XBUFX4_230 vdd gnd _1278_ _1278__bF$buf4 BUFX4
XBUFX4_231 vdd gnd _1278_ _1278__bF$buf3 BUFX4
XBUFX4_232 vdd gnd _1278_ _1278__bF$buf2 BUFX4
XBUFX4_233 vdd gnd _1278_ _1278__bF$buf1 BUFX4
XBUFX4_234 vdd gnd _1278_ _1278__bF$buf0 BUFX4
XBUFX4_235 vdd gnd _1622_ _1622__bF$buf3 BUFX4
XBUFX4_236 vdd gnd _1622_ _1622__bF$buf2 BUFX4
XBUFX4_237 vdd gnd _1622_ _1622__bF$buf1 BUFX4
XBUFX4_238 vdd gnd _1622_ _1622__bF$buf0 BUFX4
XBUFX4_239 vdd gnd _380_ _380__bF$buf4 BUFX4
XBUFX4_240 vdd gnd _380_ _380__bF$buf3 BUFX4
XBUFX4_241 vdd gnd _380_ _380__bF$buf2 BUFX4
XBUFX4_242 vdd gnd _380_ _380__bF$buf1 BUFX4
XBUFX4_243 vdd gnd _380_ _380__bF$buf0 BUFX4
XBUFX4_244 vdd gnd _1657_ _1657__bF$buf3 BUFX4
XBUFX4_245 vdd gnd _1657_ _1657__bF$buf2 BUFX4
XBUFX4_246 vdd gnd _1657_ _1657__bF$buf1 BUFX4
XBUFX4_247 vdd gnd _1657_ _1657__bF$buf0 BUFX4
XBUFX4_248 vdd gnd _568_ _568__bF$buf4 BUFX4
XBUFX4_249 vdd gnd _568_ _568__bF$buf3 BUFX4
XBUFX4_250 vdd gnd _568_ _568__bF$buf2 BUFX4
XBUFX4_251 vdd gnd _568_ _568__bF$buf1 BUFX4
XBUFX4_252 vdd gnd _568_ _568__bF$buf0 BUFX4
XBUFX4_253 vdd gnd _1275_ _1275__bF$buf4 BUFX4
XBUFX4_254 vdd gnd _1275_ _1275__bF$buf3 BUFX4
XBUFX4_255 vdd gnd _1275_ _1275__bF$buf2 BUFX4
XBUFX4_256 vdd gnd _1275_ _1275__bF$buf1 BUFX4
XBUFX4_257 vdd gnd _1275_ _1275__bF$buf0 BUFX4
XBUFX4_258 vdd gnd _1272_ _1272__bF$buf6 BUFX4
XBUFX4_259 vdd gnd _1272_ _1272__bF$buf5 BUFX4
XBUFX4_260 vdd gnd _1272_ _1272__bF$buf4 BUFX4
XBUFX4_261 vdd gnd _1272_ _1272__bF$buf3 BUFX4
XBUFX4_262 vdd gnd _1272_ _1272__bF$buf2 BUFX4
XBUFX4_263 vdd gnd _1272_ _1272__bF$buf1 BUFX4
XBUFX4_264 vdd gnd _1272_ _1272__bF$buf0 BUFX4
XBUFX4_265 vdd gnd _1651_ _1651__bF$buf3 BUFX4
XBUFX4_266 vdd gnd _1651_ _1651__bF$buf2 BUFX4
XBUFX4_267 vdd gnd _1651_ _1651__bF$buf1 BUFX4
XBUFX4_268 vdd gnd _1651_ _1651__bF$buf0 BUFX4
XBUFX4_269 vdd gnd _465_ _465__bF$buf4 BUFX4
XBUFX4_270 vdd gnd _465_ _465__bF$buf3 BUFX4
XBUFX4_271 vdd gnd _465_ _465__bF$buf2 BUFX4
XBUFX4_272 vdd gnd _465_ _465__bF$buf1 BUFX4
XBUFX4_273 vdd gnd _465_ _465__bF$buf0 BUFX4
XBUFX4_274 vdd gnd REG_Interrupt_flag REG_Interrupt_flag_bF$buf13 BUFX4
XBUFX4_275 vdd gnd REG_Interrupt_flag REG_Interrupt_flag_bF$buf12 BUFX4
XBUFX4_276 vdd gnd REG_Interrupt_flag REG_Interrupt_flag_bF$buf11 BUFX4
XBUFX4_277 vdd gnd REG_Interrupt_flag REG_Interrupt_flag_bF$buf10 BUFX4
XBUFX4_278 vdd gnd REG_Interrupt_flag REG_Interrupt_flag_bF$buf9 BUFX4
XBUFX4_279 vdd gnd REG_Interrupt_flag REG_Interrupt_flag_bF$buf8 BUFX4
XBUFX4_280 vdd gnd REG_Interrupt_flag REG_Interrupt_flag_bF$buf7 BUFX4
XBUFX4_281 vdd gnd REG_Interrupt_flag REG_Interrupt_flag_bF$buf6 BUFX4
XBUFX4_282 vdd gnd REG_Interrupt_flag REG_Interrupt_flag_bF$buf5 BUFX4
XBUFX4_283 vdd gnd REG_Interrupt_flag REG_Interrupt_flag_bF$buf4 BUFX4
XBUFX4_284 vdd gnd REG_Interrupt_flag REG_Interrupt_flag_bF$buf3 BUFX4
XBUFX4_285 vdd gnd REG_Interrupt_flag REG_Interrupt_flag_bF$buf2 BUFX4
XBUFX4_286 vdd gnd REG_Interrupt_flag REG_Interrupt_flag_bF$buf1 BUFX4
XBUFX4_287 vdd gnd REG_Interrupt_flag REG_Interrupt_flag_bF$buf0 BUFX4
XBUFX4_288 vdd gnd _518_ _518__bF$buf4 BUFX4
XBUFX4_289 vdd gnd _518_ _518__bF$buf3 BUFX4
XBUFX4_290 vdd gnd _518_ _518__bF$buf2 BUFX4
XBUFX4_291 vdd gnd _518_ _518__bF$buf1 BUFX4
XBUFX4_292 vdd gnd _518_ _518__bF$buf0 BUFX4
XBUFX4_293 vdd gnd _1645_ _1645__bF$buf3 BUFX4
XBUFX4_294 vdd gnd _1645_ _1645__bF$buf2 BUFX4
XBUFX4_295 vdd gnd _1645_ _1645__bF$buf1 BUFX4
XBUFX4_296 vdd gnd _1645_ _1645__bF$buf0 BUFX4
XBUFX4_297 vdd gnd _650_ _650__bF$buf5 BUFX4
XBUFX4_298 vdd gnd _650_ _650__bF$buf4 BUFX4
XBUFX4_299 vdd gnd _650_ _650__bF$buf3 BUFX4
XBUFX4_300 vdd gnd _650_ _650__bF$buf2 BUFX4
XBUFX4_301 vdd gnd _650_ _650__bF$buf1 BUFX4
XBUFX4_302 vdd gnd _650_ _650__bF$buf0 BUFX4
XBUFX4_303 vdd gnd _1604_ _1604__bF$buf4 BUFX4
XBUFX4_304 vdd gnd _1604_ _1604__bF$buf3 BUFX4
XBUFX4_305 vdd gnd _1604_ _1604__bF$buf2 BUFX4
XBUFX4_306 vdd gnd _1604_ _1604__bF$buf1 BUFX4
XBUFX4_307 vdd gnd _1604_ _1604__bF$buf0 BUFX4
XBUFX4_308 vdd gnd _362_ _362__bF$buf4 BUFX4
XBUFX4_309 vdd gnd _362_ _362__bF$buf3 BUFX4
XBUFX4_310 vdd gnd _362_ _362__bF$buf2 BUFX4
XBUFX4_311 vdd gnd _362_ _362__bF$buf1 BUFX4
XBUFX4_312 vdd gnd _362_ _362__bF$buf0 BUFX4
XBUFX4_313 vdd gnd _647_ _647__bF$buf4 BUFX4
XBUFX4_314 vdd gnd _647_ _647__bF$buf3 BUFX4
XBUFX4_315 vdd gnd _647_ _647__bF$buf2 BUFX4
XBUFX4_316 vdd gnd _647_ _647__bF$buf1 BUFX4
XBUFX4_317 vdd gnd _647_ _647__bF$buf0 BUFX4
XBUFX4_318 vdd gnd _1639_ _1639__bF$buf3 BUFX4
XBUFX4_319 vdd gnd _1639_ _1639__bF$buf2 BUFX4
XBUFX4_320 vdd gnd _1639_ _1639__bF$buf1 BUFX4
XBUFX4_321 vdd gnd _1639_ _1639__bF$buf0 BUFX4
XINVX8_1 vdd gnd REG_D<0> _1621_ INVX8
XNAND3X1_1 REG_Write vdd gnd REG_RFD<3> REG_Interrupt_flag_bF$buf0 _1622_ NAND3X1
XINVX4_1 vdd gnd _1623_ _1622__bF$buf0 INVX4
XINVX1_1 REG_RFD<2> _1624_ vdd gnd INVX1
XNAND2X1_1 vdd _1625_ gnd REG_RFD<1> _1624_ NAND2X1
XNOR2X1_1 vdd _1625_ gnd _1626_ REG_RFD<0> NOR2X1
XNAND2X1_2 vdd _1627_ gnd _1623_ _1626_ NAND2X1
XNAND2X1_3 vdd _1628_ gnd FIRQ_REGS<2><0> _1627__bF$buf2 NAND2X1
XOAI21X1_1 gnd vdd _1621__bF$buf1 _1627__bF$buf2 _0_ _1628_ OAI21X1
XINVX8_2 vdd gnd REG_D<1> _1629_ INVX8
XNAND2X1_4 vdd _1630_ gnd FIRQ_REGS<2><1> _1627__bF$buf1 NAND2X1
XOAI21X1_2 gnd vdd _1629__bF$buf2 _1627__bF$buf1 _1_ _1630_ OAI21X1
XINVX8_3 vdd gnd REG_D<2> _1631_ INVX8
XNAND2X1_5 vdd _1632_ gnd FIRQ_REGS<2><2> _1627__bF$buf2 NAND2X1
XOAI21X1_3 gnd vdd _1631__bF$buf1 _1627__bF$buf2 _2_ _1632_ OAI21X1
XINVX8_4 vdd gnd REG_D<3> _1633_ INVX8
XNAND2X1_6 vdd _1634_ gnd FIRQ_REGS<2><3> _1627__bF$buf3 NAND2X1
XOAI21X1_4 gnd vdd _1633__bF$buf1 _1627__bF$buf3 _3_ _1634_ OAI21X1
XINVX8_5 vdd gnd REG_D<4> _1635_ INVX8
XNAND2X1_7 vdd _1636_ gnd FIRQ_REGS<2><4> _1627__bF$buf3 NAND2X1
XOAI21X1_5 gnd vdd _1635__bF$buf3 _1627__bF$buf4 _4_ _1636_ OAI21X1
XINVX8_6 vdd gnd REG_D<5> _1637_ INVX8
XNAND2X1_8 vdd _1638_ gnd FIRQ_REGS<2><5> _1627__bF$buf3 NAND2X1
XOAI21X1_6 gnd vdd _1637__bF$buf0 _1627__bF$buf3 _5_ _1638_ OAI21X1
XINVX8_7 vdd gnd REG_D<6> _1639_ INVX8
XNAND2X1_9 vdd _1640_ gnd FIRQ_REGS<2><6> _1627__bF$buf3 NAND2X1
XOAI21X1_7 gnd vdd _1639__bF$buf2 _1627__bF$buf3 _6_ _1640_ OAI21X1
XINVX8_8 vdd gnd REG_D<7> _1641_ INVX8
XNAND2X1_10 vdd _1642_ gnd FIRQ_REGS<2><7> _1627__bF$buf2 NAND2X1
XOAI21X1_8 gnd vdd _1641__bF$buf0 _1627__bF$buf2 _7_ _1642_ OAI21X1
XINVX8_9 vdd gnd REG_D<8> _1643_ INVX8
XNAND2X1_11 vdd _1644_ gnd FIRQ_REGS<2><8> _1627__bF$buf0 NAND2X1
XOAI21X1_9 gnd vdd _1643__bF$buf1 _1627__bF$buf0 _8_ _1644_ OAI21X1
XINVX8_10 vdd gnd REG_D<9> _1645_ INVX8
XNAND2X1_12 vdd _1646_ gnd FIRQ_REGS<2><9> _1627__bF$buf4 NAND2X1
XOAI21X1_10 gnd vdd _1645__bF$buf1 _1627__bF$buf4 _9_ _1646_ OAI21X1
XINVX8_11 vdd gnd REG_D<10> _1647_ INVX8
XNAND2X1_13 vdd _1648_ gnd FIRQ_REGS<2><10> _1627__bF$buf0 NAND2X1
XOAI21X1_11 gnd vdd _1647__bF$buf1 _1627__bF$buf0 _10_ _1648_ OAI21X1
XINVX8_12 vdd gnd REG_D<11> _1649_ INVX8
XNAND2X1_14 vdd _1650_ gnd FIRQ_REGS<2><11> _1627__bF$buf4 NAND2X1
XOAI21X1_12 gnd vdd _1649__bF$buf1 _1627__bF$buf4 _11_ _1650_ OAI21X1
XINVX8_13 vdd gnd REG_D<12> _1651_ INVX8
XNAND2X1_15 vdd _1652_ gnd FIRQ_REGS<2><12> _1627__bF$buf1 NAND2X1
XOAI21X1_13 gnd vdd _1651__bF$buf2 _1627__bF$buf1 _12_ _1652_ OAI21X1
XINVX8_14 vdd gnd REG_D<13> _1653_ INVX8
XNAND2X1_16 vdd _1654_ gnd FIRQ_REGS<2><13> _1627__bF$buf0 NAND2X1
XOAI21X1_14 gnd vdd _1653__bF$buf2 _1627__bF$buf0 _13_ _1654_ OAI21X1
XINVX8_15 vdd gnd REG_D<14> _1655_ INVX8
XNAND2X1_17 vdd _1656_ gnd FIRQ_REGS<2><14> _1627__bF$buf4 NAND2X1
XOAI21X1_15 gnd vdd _1655__bF$buf2 _1627__bF$buf4 _14_ _1656_ OAI21X1
XINVX8_16 vdd gnd REG_D<15> _1657_ INVX8
XNAND2X1_18 vdd _1658_ gnd FIRQ_REGS<2><15> _1627__bF$buf1 NAND2X1
XOAI21X1_16 gnd vdd _1657__bF$buf2 _1627__bF$buf1 _15_ _1658_ OAI21X1
XINVX2_1 vdd gnd _1659_ REG_RFD<0> INVX2
XNOR2X1_2 vdd _1625_ gnd _1660_ _1659_ NOR2X1
XNAND2X1_19 vdd _1661_ gnd _1623_ _1660_ NAND2X1
XNAND2X1_20 vdd _1662_ gnd FIRQ_REGS<3><0> _1661__bF$buf1 NAND2X1
XOAI21X1_17 gnd vdd _1621__bF$buf1 _1661__bF$buf1 _16_ _1662_ OAI21X1
XNAND2X1_21 vdd _1663_ gnd FIRQ_REGS<3><1> _1661__bF$buf0 NAND2X1
XOAI21X1_18 gnd vdd _1629__bF$buf2 _1661__bF$buf0 _17_ _1663_ OAI21X1
XNAND2X1_22 vdd _1664_ gnd FIRQ_REGS<3><2> _1661__bF$buf3 NAND2X1
XOAI21X1_19 gnd vdd _1631__bF$buf0 _1661__bF$buf3 _18_ _1664_ OAI21X1
XNAND2X1_23 vdd _1665_ gnd FIRQ_REGS<3><3> _1661__bF$buf4 NAND2X1
XOAI21X1_20 gnd vdd _1633__bF$buf2 _1661__bF$buf4 _19_ _1665_ OAI21X1
XNAND2X1_24 vdd _1666_ gnd FIRQ_REGS<3><4> _1661__bF$buf2 NAND2X1
XOAI21X1_21 gnd vdd _1635__bF$buf3 _1661__bF$buf2 _20_ _1666_ OAI21X1
XNAND2X1_25 vdd _1667_ gnd FIRQ_REGS<3><5> _1661__bF$buf2 NAND2X1
XOAI21X1_22 gnd vdd _1637__bF$buf2 _1661__bF$buf2 _21_ _1667_ OAI21X1
XNAND2X1_26 vdd _1668_ gnd FIRQ_REGS<3><6> _1661__bF$buf2 NAND2X1
XOAI21X1_23 gnd vdd _1639__bF$buf2 _1661__bF$buf4 _22_ _1668_ OAI21X1
XNAND2X1_27 vdd _1669_ gnd FIRQ_REGS<3><7> _1661__bF$buf3 NAND2X1
XOAI21X1_24 gnd vdd _1641__bF$buf2 _1661__bF$buf2 _23_ _1669_ OAI21X1
XNAND2X1_28 vdd _1670_ gnd FIRQ_REGS<3><8> _1661__bF$buf1 NAND2X1
XOAI21X1_25 gnd vdd _1643__bF$buf1 _1661__bF$buf1 _24_ _1670_ OAI21X1
XNAND2X1_29 vdd _1671_ gnd FIRQ_REGS<3><9> _1661__bF$buf4 NAND2X1
XOAI21X1_26 gnd vdd _1645__bF$buf3 _1661__bF$buf4 _25_ _1671_ OAI21X1
XNAND2X1_30 vdd _1672_ gnd FIRQ_REGS<3><10> _1661__bF$buf0 NAND2X1
XOAI21X1_27 gnd vdd _1647__bF$buf1 _1661__bF$buf0 _26_ _1672_ OAI21X1
XNAND2X1_31 vdd _1673_ gnd FIRQ_REGS<3><11> _1661__bF$buf3 NAND2X1
XOAI21X1_28 gnd vdd _1649__bF$buf2 _1661__bF$buf3 _27_ _1673_ OAI21X1
XNAND2X1_32 vdd _1674_ gnd FIRQ_REGS<3><12> _1661__bF$buf3 NAND2X1
XOAI21X1_29 gnd vdd _1651__bF$buf2 _1661__bF$buf3 _28_ _1674_ OAI21X1
XNAND2X1_33 vdd _1675_ gnd FIRQ_REGS<3><13> _1661__bF$buf0 NAND2X1
XOAI21X1_30 gnd vdd _1653__bF$buf1 _1661__bF$buf0 _29_ _1675_ OAI21X1
XNAND2X1_34 vdd _1676_ gnd FIRQ_REGS<3><14> _1661__bF$buf4 NAND2X1
XOAI21X1_31 gnd vdd _1655__bF$buf0 _1661__bF$buf4 _30_ _1676_ OAI21X1
XNAND2X1_35 vdd _1677_ gnd FIRQ_REGS<3><15> _1661__bF$buf1 NAND2X1
XOAI21X1_32 gnd vdd _1657__bF$buf3 _1661__bF$buf1 _31_ _1677_ OAI21X1
XINVX1_2 REG_RFD<1> _1678_ vdd gnd INVX1
XNAND2X1_36 vdd _1679_ gnd REG_RFD<2> _1678_ NAND2X1
XNOR2X1_3 vdd _1679_ gnd _1680_ REG_RFD<0> NOR2X1
XNAND2X1_37 vdd _1681_ gnd _1623_ _1680_ NAND2X1
XNAND2X1_38 vdd _1682_ gnd FIRQ_REGS<4><0> _1681__bF$buf4 NAND2X1
XOAI21X1_33 gnd vdd _1621__bF$buf2 _1681__bF$buf4 _32_ _1682_ OAI21X1
XNAND2X1_39 vdd _1683_ gnd FIRQ_REGS<4><1> _1681__bF$buf1 NAND2X1
XOAI21X1_34 gnd vdd _1629__bF$buf1 _1681__bF$buf1 _33_ _1683_ OAI21X1
XNAND2X1_40 vdd _1684_ gnd FIRQ_REGS<4><2> _1681__bF$buf4 NAND2X1
XOAI21X1_35 gnd vdd _1631__bF$buf0 _1681__bF$buf4 _34_ _1684_ OAI21X1
XNAND2X1_41 vdd _1685_ gnd FIRQ_REGS<4><3> _1681__bF$buf0 NAND2X1
XOAI21X1_36 gnd vdd _1633__bF$buf2 _1681__bF$buf0 _35_ _1685_ OAI21X1
XNAND2X1_42 vdd _1686_ gnd FIRQ_REGS<4><4> _1681__bF$buf3 NAND2X1
XOAI21X1_37 gnd vdd _1635__bF$buf2 _1681__bF$buf3 _36_ _1686_ OAI21X1
XNAND2X1_43 vdd _1687_ gnd FIRQ_REGS<4><5> _1681__bF$buf4 NAND2X1
XOAI21X1_38 gnd vdd _1637__bF$buf0 _1681__bF$buf3 _37_ _1687_ OAI21X1
XNAND2X1_44 vdd _1688_ gnd FIRQ_REGS<4><6> _1681__bF$buf0 NAND2X1
XOAI21X1_39 gnd vdd _1639__bF$buf0 _1681__bF$buf0 _38_ _1688_ OAI21X1
XNAND2X1_45 vdd _1689_ gnd FIRQ_REGS<4><7> _1681__bF$buf3 NAND2X1
XOAI21X1_40 gnd vdd _1641__bF$buf1 _1681__bF$buf3 _39_ _1689_ OAI21X1
XNAND2X1_46 vdd _1690_ gnd FIRQ_REGS<4><8> _1681__bF$buf1 NAND2X1
XOAI21X1_41 gnd vdd _1643__bF$buf0 _1681__bF$buf1 _40_ _1690_ OAI21X1
XNAND2X1_47 vdd _1691_ gnd FIRQ_REGS<4><9> _1681__bF$buf3 NAND2X1
XOAI21X1_42 gnd vdd _1645__bF$buf2 _1681__bF$buf3 _41_ _1691_ OAI21X1
XNAND2X1_48 vdd _1692_ gnd FIRQ_REGS<4><10> _1681__bF$buf2 NAND2X1
XOAI21X1_43 gnd vdd _1647__bF$buf0 _1681__bF$buf2 _42_ _1692_ OAI21X1
XNAND2X1_49 vdd _1693_ gnd FIRQ_REGS<4><11> _1681__bF$buf4 NAND2X1
XOAI21X1_44 gnd vdd _1649__bF$buf1 _1681__bF$buf4 _43_ _1693_ OAI21X1
XNAND2X1_50 vdd _1694_ gnd FIRQ_REGS<4><12> _1681__bF$buf2 NAND2X1
XOAI21X1_45 gnd vdd _1651__bF$buf0 _1681__bF$buf2 _44_ _1694_ OAI21X1
XNAND2X1_51 vdd _1695_ gnd FIRQ_REGS<4><13> _1681__bF$buf1 NAND2X1
XOAI21X1_46 gnd vdd _1653__bF$buf2 _1681__bF$buf1 _45_ _1695_ OAI21X1
XNAND2X1_52 vdd _1696_ gnd FIRQ_REGS<4><14> _1681__bF$buf0 NAND2X1
XOAI21X1_47 gnd vdd _1655__bF$buf1 _1681__bF$buf0 _46_ _1696_ OAI21X1
XNAND2X1_53 vdd _1697_ gnd FIRQ_REGS<4><15> _1681__bF$buf2 NAND2X1
XOAI21X1_48 gnd vdd _1657__bF$buf3 _1681__bF$buf2 _47_ _1697_ OAI21X1
XNOR2X1_4 vdd _1679_ gnd _1698_ _1659_ NOR2X1
XNAND2X1_54 vdd _1699_ gnd _1623_ _1698_ NAND2X1
XNAND2X1_55 vdd _1700_ gnd FIRQ_REGS<5><0> _1699__bF$buf0 NAND2X1
XOAI21X1_49 gnd vdd _1621__bF$buf3 _1699__bF$buf0 _48_ _1700_ OAI21X1
XNAND2X1_56 vdd _1701_ gnd FIRQ_REGS<5><1> _1699__bF$buf0 NAND2X1
XOAI21X1_50 gnd vdd _1629__bF$buf0 _1699__bF$buf0 _49_ _1701_ OAI21X1
XNAND2X1_57 vdd _1702_ gnd FIRQ_REGS<5><2> _1699__bF$buf2 NAND2X1
XOAI21X1_51 gnd vdd _1631__bF$buf0 _1699__bF$buf2 _50_ _1702_ OAI21X1
XNAND2X1_58 vdd _1703_ gnd FIRQ_REGS<5><3> _1699__bF$buf3 NAND2X1
XOAI21X1_52 gnd vdd _1633__bF$buf2 _1699__bF$buf3 _51_ _1703_ OAI21X1
XNAND2X1_59 vdd _1704_ gnd FIRQ_REGS<5><4> _1699__bF$buf3 NAND2X1
XOAI21X1_53 gnd vdd _1635__bF$buf2 _1699__bF$buf3 _52_ _1704_ OAI21X1
XNAND2X1_60 vdd _1705_ gnd FIRQ_REGS<5><5> _1699__bF$buf4 NAND2X1
XOAI21X1_54 gnd vdd _1637__bF$buf0 _1699__bF$buf3 _53_ _1705_ OAI21X1
XNAND2X1_61 vdd _1706_ gnd FIRQ_REGS<5><6> _1699__bF$buf4 NAND2X1
XOAI21X1_55 gnd vdd _1639__bF$buf1 _1699__bF$buf4 _54_ _1706_ OAI21X1
XNAND2X1_62 vdd _1707_ gnd FIRQ_REGS<5><7> _1699__bF$buf3 NAND2X1
XOAI21X1_56 gnd vdd _1641__bF$buf1 _1699__bF$buf3 _55_ _1707_ OAI21X1
XNAND2X1_63 vdd _1708_ gnd FIRQ_REGS<5><8> _1699__bF$buf0 NAND2X1
XOAI21X1_57 gnd vdd _1643__bF$buf0 _1699__bF$buf0 _56_ _1708_ OAI21X1
XNAND2X1_64 vdd _1709_ gnd FIRQ_REGS<5><9> _1699__bF$buf4 NAND2X1
XOAI21X1_58 gnd vdd _1645__bF$buf3 _1699__bF$buf4 _57_ _1709_ OAI21X1
XNAND2X1_65 vdd _1710_ gnd FIRQ_REGS<5><10> _1699__bF$buf2 NAND2X1
XOAI21X1_59 gnd vdd _1647__bF$buf0 _1699__bF$buf2 _58_ _1710_ OAI21X1
XNAND2X1_66 vdd _1711_ gnd FIRQ_REGS<5><11> _1699__bF$buf1 NAND2X1
XOAI21X1_60 gnd vdd _1649__bF$buf3 _1699__bF$buf1 _59_ _1711_ OAI21X1
XNAND2X1_67 vdd _1712_ gnd FIRQ_REGS<5><12> _1699__bF$buf1 NAND2X1
XOAI21X1_61 gnd vdd _1651__bF$buf1 _1699__bF$buf1 _60_ _1712_ OAI21X1
XNAND2X1_68 vdd _1713_ gnd FIRQ_REGS<5><13> _1699__bF$buf2 NAND2X1
XOAI21X1_62 gnd vdd _1653__bF$buf3 _1699__bF$buf2 _61_ _1713_ OAI21X1
XNAND2X1_69 vdd _1714_ gnd FIRQ_REGS<5><14> _1699__bF$buf4 NAND2X1
XOAI21X1_63 gnd vdd _1655__bF$buf1 _1699__bF$buf4 _62_ _1714_ OAI21X1
XNAND2X1_70 vdd _1715_ gnd FIRQ_REGS<5><15> _1699__bF$buf1 NAND2X1
XOAI21X1_64 gnd vdd _1657__bF$buf1 _1699__bF$buf1 _63_ _1715_ OAI21X1
XNAND2X1_71 vdd _1716_ gnd REG_RFD<1> REG_RFD<2> NAND2X1
XNOR2X1_5 vdd _1716_ gnd _1717_ REG_RFD<0> NOR2X1
XNAND2X1_72 vdd _1718_ gnd _1623_ _1717_ NAND2X1
XNAND2X1_73 vdd _1719_ gnd FIRQ_REGS<6><0> _1718__bF$buf3 NAND2X1
XOAI21X1_65 gnd vdd _1621__bF$buf3 _1718__bF$buf3 _64_ _1719_ OAI21X1
XNAND2X1_74 vdd _1720_ gnd FIRQ_REGS<6><1> _1718__bF$buf2 NAND2X1
XOAI21X1_66 gnd vdd _1629__bF$buf0 _1718__bF$buf2 _65_ _1720_ OAI21X1
XNAND2X1_75 vdd _1721_ gnd FIRQ_REGS<6><2> _1718__bF$buf1 NAND2X1
XOAI21X1_67 gnd vdd _1631__bF$buf3 _1718__bF$buf1 _66_ _1721_ OAI21X1
XNAND2X1_76 vdd _1722_ gnd FIRQ_REGS<6><3> _1718__bF$buf0 NAND2X1
XOAI21X1_68 gnd vdd _1633__bF$buf0 _1718__bF$buf0 _67_ _1722_ OAI21X1
XNAND2X1_77 vdd _1723_ gnd FIRQ_REGS<6><4> _1718__bF$buf4 NAND2X1
XOAI21X1_69 gnd vdd _1635__bF$buf2 _1718__bF$buf4 _68_ _1723_ OAI21X1
XNAND2X1_78 vdd _1724_ gnd FIRQ_REGS<6><5> _1718__bF$buf4 NAND2X1
XOAI21X1_70 gnd vdd _1637__bF$buf1 _1718__bF$buf4 _69_ _1724_ OAI21X1
XNAND2X1_79 vdd _1725_ gnd FIRQ_REGS<6><6> _1718__bF$buf0 NAND2X1
XOAI21X1_71 gnd vdd _1639__bF$buf1 _1718__bF$buf0 _70_ _1725_ OAI21X1
XNAND2X1_80 vdd _1726_ gnd FIRQ_REGS<6><7> _1718__bF$buf0 NAND2X1
XOAI21X1_72 gnd vdd _1641__bF$buf2 _1718__bF$buf0 _71_ _1726_ OAI21X1
XNAND2X1_81 vdd _1727_ gnd FIRQ_REGS<6><8> _1718__bF$buf2 NAND2X1
XOAI21X1_73 gnd vdd _1643__bF$buf3 _1718__bF$buf2 _72_ _1727_ OAI21X1
XNAND2X1_82 vdd _1728_ gnd FIRQ_REGS<6><9> _1718__bF$buf1 NAND2X1
XOAI21X1_74 gnd vdd _1645__bF$buf3 _1718__bF$buf1 _73_ _1728_ OAI21X1
XNAND2X1_83 vdd _1729_ gnd FIRQ_REGS<6><10> _1718__bF$buf3 NAND2X1
XOAI21X1_75 gnd vdd _1647__bF$buf2 _1718__bF$buf3 _74_ _1729_ OAI21X1
XNAND2X1_84 vdd _1730_ gnd FIRQ_REGS<6><11> _1718__bF$buf1 NAND2X1
XOAI21X1_76 gnd vdd _1649__bF$buf3 _1718__bF$buf4 _75_ _1730_ OAI21X1
XNAND2X1_85 vdd _1731_ gnd FIRQ_REGS<6><12> _1718__bF$buf1 NAND2X1
XOAI21X1_77 gnd vdd _1651__bF$buf1 _1718__bF$buf3 _76_ _1731_ OAI21X1
XNAND2X1_86 vdd _1732_ gnd FIRQ_REGS<6><13> _1718__bF$buf3 NAND2X1
XOAI21X1_78 gnd vdd _1653__bF$buf3 _1718__bF$buf3 _77_ _1732_ OAI21X1
XNAND2X1_87 vdd _1733_ gnd FIRQ_REGS<6><14> _1718__bF$buf4 NAND2X1
XOAI21X1_79 gnd vdd _1655__bF$buf2 _1718__bF$buf4 _78_ _1733_ OAI21X1
XNAND2X1_88 vdd _1734_ gnd FIRQ_REGS<6><15> _1718__bF$buf2 NAND2X1
XOAI21X1_80 gnd vdd _1657__bF$buf1 _1718__bF$buf2 _79_ _1734_ OAI21X1
XOR2X2_1 _1735_ _1659_ vdd gnd _1716_ OR2X2
XINVX1_3 _1735__bF$buf2 _1736_ vdd gnd INVX1
XNAND2X1_89 vdd _1737_ gnd _1623_ _1736_ NAND2X1
XOAI21X1_81 gnd vdd _1735__bF$buf0 _1622__bF$buf2 _1738_ FIRQ_REGS<7><0> OAI21X1
XOAI21X1_82 gnd vdd _1737_ _1621__bF$buf3 _80_ _1738_ OAI21X1
XOAI21X1_83 gnd vdd _1735__bF$buf3 _1622__bF$buf3 _1739_ FIRQ_REGS<7><1> OAI21X1
XOAI21X1_84 gnd vdd _1737_ _1629__bF$buf1 _81_ _1739_ OAI21X1
XOAI21X1_85 gnd vdd _1735__bF$buf0 _1622__bF$buf2 _1740_ FIRQ_REGS<7><2> OAI21X1
XOAI21X1_86 gnd vdd _1737_ _1631__bF$buf3 _82_ _1740_ OAI21X1
XOAI21X1_87 gnd vdd _1735__bF$buf1 _1622__bF$buf1 _1741_ FIRQ_REGS<7><3> OAI21X1
XOAI21X1_88 gnd vdd _1737_ _1633__bF$buf0 _83_ _1741_ OAI21X1
XOAI21X1_89 gnd vdd _1735__bF$buf2 _1622__bF$buf0 _1742_ FIRQ_REGS<7><4> OAI21X1
XOAI21X1_90 gnd vdd _1737_ _1635__bF$buf3 _84_ _1742_ OAI21X1
XOAI21X1_91 gnd vdd _1735__bF$buf1 _1622__bF$buf1 _1743_ FIRQ_REGS<7><5> OAI21X1
XOAI21X1_92 gnd vdd _1737_ _1637__bF$buf1 _85_ _1743_ OAI21X1
XOAI21X1_93 gnd vdd _1735__bF$buf2 _1622__bF$buf0 _1744_ FIRQ_REGS<7><6> OAI21X1