* XSpice netlist created from SPICE and liberty sources by spi2xspice.py
*SPICE netlist created from BLIF module NRISC_REGs by blif2BSpice
.subckt NRISC_REGs a_vdd a_gnd a_REG_D_0_ a_REG_D_1_ a_REG_D_2_ a_REG_D_3_ a_REG_D_4_ a_REG_D_5_ a_REG_D_6_ a_REG_D_7_ a_REG_D_8_ a_REG_D_9_ a_REG_D_10_ a_REG_D_11_ a_REG_D_12_ a_REG_D_13_ a_REG_D_14_ a_REG_D_15_ a_REG_RF1_0_ a_REG_RF1_1_ a_REG_RF1_2_ a_REG_RF1_3_ a_REG_RF2_0_ a_REG_RF2_1_ a_REG_RF2_2_ a_REG_RF2_3_ a_REG_RFD_0_ a_REG_RFD_1_ a_REG_RFD_2_ a_REG_RFD_3_ a_REG_R1_0_ a_REG_R1_1_ a_REG_R1_2_ a_REG_R1_3_ a_REG_R1_4_ a_REG_R1_5_ a_REG_R1_6_ a_REG_R1_7_ a_REG_R1_8_ a_REG_R1_9_ a_REG_R1_10_ a_REG_R1_11_ a_REG_R1_12_ a_REG_R1_13_ a_REG_R1_14_ a_REG_R1_15_ a_REG_Write a_REG_Interrupt_flag a_clk a_rst a_REG_A_0_ a_REG_A_1_ a_REG_A_2_ a_REG_A_3_ a_REG_A_4_ a_REG_A_5_ a_REG_A_6_ a_REG_A_7_ a_REG_A_8_ a_REG_A_9_ a_REG_A_10_ a_REG_A_11_ a_REG_A_12_ a_REG_A_13_ a_REG_A_14_ a_REG_A_15_ a_REG_B_0_ a_REG_B_1_ a_REG_B_2_ a_REG_B_3_ a_REG_B_4_ a_REG_B_5_ a_REG_B_6_ a_REG_B_7_ a_REG_B_8_ a_REG_B_9_ a_REG_B_10_ a_REG_B_11_ a_REG_B_12_ a_REG_B_13_ a_REG_B_14_ a_REG_B_15_
AAND2X2_1 [_1626_ _500_] _501_ d_lut_AND2X2
AAND2X2_2 [_1660_ _500_] _518_ d_lut_AND2X2
AAND2X2_3 [_1680_ _500_] _536_ d_lut_AND2X2
AAND2X2_4 [_1698_ _500_] _568_ d_lut_AND2X2
AAND2X2_5 [_500_ _1717_] _585_ d_lut_AND2X2
AAND2X2_6 [_1736_ _500_] _603_ d_lut_AND2X2
AAND2X2_7 [_635_ REG_RF2_3_] _673_ d_lut_AND2X2
AAND2X2_8 [_1263_ REG_RF1_3_] _1294_ d_lut_AND2X2
AAND2X2_9 [_361_ _1623_] _1604_ d_lut_AND2X2
AAOI21X1_1 [_1621__bF_buf0 _501__bF_buf0 _502_] _224_ d_lut_AOI21X1
AAOI21X1_2 [_1645__bF_buf0 _501__bF_buf2 _511_] _233_ d_lut_AOI21X1
AAOI21X1_3 [_1647__bF_buf3 _501__bF_buf1 _512_] _234_ d_lut_AOI21X1
AAOI21X1_4 [_1649__bF_buf0 _501__bF_buf4 _513_] _235_ d_lut_AOI21X1
AAOI21X1_5 [_1651__bF_buf3 _501__bF_buf1 _514_] _236_ d_lut_AOI21X1
AAOI21X1_6 [_1653__bF_buf0 _501__bF_buf0 _515_] _237_ d_lut_AOI21X1
AAOI21X1_7 [_1655__bF_buf3 _501__bF_buf3 _516_] _238_ d_lut_AOI21X1
AAOI21X1_8 [_1657__bF_buf0 _501__bF_buf4 _517_] _239_ d_lut_AOI21X1
AAOI21X1_9 [_1621__bF_buf0 _518__bF_buf1 _519_] _240_ d_lut_AOI21X1
AAOI21X1_10 [_1629__bF_buf3 _518__bF_buf1 _520_] _241_ d_lut_AOI21X1
AAOI21X1_11 [_1631__bF_buf2 _518__bF_buf4 _521_] _242_ d_lut_AOI21X1
AAOI21X1_12 [_1629__bF_buf3 _501__bF_buf0 _503_] _225_ d_lut_AOI21X1
AAOI21X1_13 [_1633__bF_buf3 _518__bF_buf2 _522_] _243_ d_lut_AOI21X1
AAOI21X1_14 [_1635__bF_buf0 _518__bF_buf3 _523_] _244_ d_lut_AOI21X1
AAOI21X1_15 [_1637__bF_buf3 _518__bF_buf3 _524_] _245_ d_lut_AOI21X1
AAOI21X1_16 [_1639__bF_buf3 _518__bF_buf4 _525_] _246_ d_lut_AOI21X1
AAOI21X1_17 [_1641__bF_buf3 _518__bF_buf2 _526_] _247_ d_lut_AOI21X1
AAOI21X1_18 [_1643__bF_buf2 _518__bF_buf0 _527_] _248_ d_lut_AOI21X1
AAOI21X1_19 [_1645__bF_buf0 _518__bF_buf0 _528_] _249_ d_lut_AOI21X1
AAOI21X1_20 [_1647__bF_buf3 _518__bF_buf4 _529_] _250_ d_lut_AOI21X1
AAOI21X1_21 [_1649__bF_buf0 _518__bF_buf0 _530_] _251_ d_lut_AOI21X1
AAOI21X1_22 [_1651__bF_buf3 _518__bF_buf0 _531_] _252_ d_lut_AOI21X1
AAOI21X1_23 [_1631__bF_buf2 _501__bF_buf2 _504_] _226_ d_lut_AOI21X1
AAOI21X1_24 [_1653__bF_buf0 _518__bF_buf1 _532_] _253_ d_lut_AOI21X1
AAOI21X1_25 [_1655__bF_buf3 _518__bF_buf2 _533_] _254_ d_lut_AOI21X1
AAOI21X1_26 [_1657__bF_buf0 _518__bF_buf3 _534_] _255_ d_lut_AOI21X1
AAOI21X1_27 [_1621__bF_buf0 _568__bF_buf3 _569_] _272_ d_lut_AOI21X1
AAOI21X1_28 [_1629__bF_buf3 _568__bF_buf3 _570_] _273_ d_lut_AOI21X1
AAOI21X1_29 [_1631__bF_buf2 _568__bF_buf2 _571_] _274_ d_lut_AOI21X1
AAOI21X1_30 [_1633__bF_buf3 _568__bF_buf4 _572_] _275_ d_lut_AOI21X1
AAOI21X1_31 [_1635__bF_buf0 _568__bF_buf1 _573_] _276_ d_lut_AOI21X1
AAOI21X1_32 [_1637__bF_buf3 _568__bF_buf1 _574_] _277_ d_lut_AOI21X1
AAOI21X1_33 [_1639__bF_buf3 _568__bF_buf1 _575_] _278_ d_lut_AOI21X1
AAOI21X1_34 [_1633__bF_buf3 _501__bF_buf3 _505_] _227_ d_lut_AOI21X1
AAOI21X1_35 [_1641__bF_buf3 _568__bF_buf4 _576_] _279_ d_lut_AOI21X1
AAOI21X1_36 [_1643__bF_buf2 _568__bF_buf0 _577_] _280_ d_lut_AOI21X1
AAOI21X1_37 [_1645__bF_buf0 _568__bF_buf1 _578_] _281_ d_lut_AOI21X1
AAOI21X1_38 [_1647__bF_buf3 _568__bF_buf0 _579_] _282_ d_lut_AOI21X1
AAOI21X1_39 [_1649__bF_buf0 _568__bF_buf2 _580_] _283_ d_lut_AOI21X1
AAOI21X1_40 [_1651__bF_buf3 _568__bF_buf0 _581_] _284_ d_lut_AOI21X1
AAOI21X1_41 [_1653__bF_buf0 _568__bF_buf3 _582_] _285_ d_lut_AOI21X1
AAOI21X1_42 [_1655__bF_buf3 _568__bF_buf4 _583_] _286_ d_lut_AOI21X1
AAOI21X1_43 [_1657__bF_buf0 _568__bF_buf3 _584_] _287_ d_lut_AOI21X1
AAOI21X1_44 [_1621__bF_buf0 _585__bF_buf2 _586_] _288_ d_lut_AOI21X1
AAOI21X1_45 [_1635__bF_buf0 _501__bF_buf4 _506_] _228_ d_lut_AOI21X1
AAOI21X1_46 [_1629__bF_buf3 _585__bF_buf0 _587_] _289_ d_lut_AOI21X1
AAOI21X1_47 [_1631__bF_buf2 _585__bF_buf1 _588_] _290_ d_lut_AOI21X1
AAOI21X1_48 [_1633__bF_buf3 _585__bF_buf3 _589_] _291_ d_lut_AOI21X1
AAOI21X1_49 [_1635__bF_buf0 _585__bF_buf4 _590_] _292_ d_lut_AOI21X1
AAOI21X1_50 [_1637__bF_buf3 _585__bF_buf4 _591_] _293_ d_lut_AOI21X1
AAOI21X1_51 [_1639__bF_buf3 _585__bF_buf4 _592_] _294_ d_lut_AOI21X1
AAOI21X1_52 [_1641__bF_buf3 _585__bF_buf3 _593_] _295_ d_lut_AOI21X1
AAOI21X1_53 [_1643__bF_buf2 _585__bF_buf1 _594_] _296_ d_lut_AOI21X1
AAOI21X1_54 [_1645__bF_buf0 _585__bF_buf4 _595_] _297_ d_lut_AOI21X1
AAOI21X1_55 [_1647__bF_buf3 _585__bF_buf1 _596_] _298_ d_lut_AOI21X1
AAOI21X1_56 [_1637__bF_buf3 _501__bF_buf4 _507_] _229_ d_lut_AOI21X1
AAOI21X1_57 [_1649__bF_buf0 _585__bF_buf2 _597_] _299_ d_lut_AOI21X1
AAOI21X1_58 [_1651__bF_buf3 _585__bF_buf2 _598_] _300_ d_lut_AOI21X1
AAOI21X1_59 [_1653__bF_buf0 _585__bF_buf0 _599_] _301_ d_lut_AOI21X1
AAOI21X1_60 [_1655__bF_buf3 _585__bF_buf3 _600_] _302_ d_lut_AOI21X1
AAOI21X1_61 [_1657__bF_buf0 _585__bF_buf0 _601_] _303_ d_lut_AOI21X1
AAOI21X1_62 [_1639__bF_buf3 _501__bF_buf2 _508_] _230_ d_lut_AOI21X1
AAOI21X1_63 [_1641__bF_buf3 _501__bF_buf3 _509_] _231_ d_lut_AOI21X1
AAOI21X1_64 [_1643__bF_buf2 _501__bF_buf1 _510_] _232_ d_lut_AOI21X1
ABUFX2_1 [_1748__0_] _1748__0_ d_lut_BUFX2
ABUFX2_2 [_1748__9_] _1748__9_ d_lut_BUFX2
ABUFX2_3 [_1748__10_] _1748__10_ d_lut_BUFX2
ABUFX2_4 [_1748__11_] _1748__11_ d_lut_BUFX2
ABUFX2_5 [_1748__12_] _1748__12_ d_lut_BUFX2
ABUFX2_6 [_1748__13_] _1748__13_ d_lut_BUFX2
ABUFX2_7 [_1748__14_] _1748__14_ d_lut_BUFX2
ABUFX2_8 [_1748__15_] _1748__15_ d_lut_BUFX2
ABUFX2_9 [_1749__0_] _1749__0_ d_lut_BUFX2
ABUFX2_10 [_1749__1_] _1749__1_ d_lut_BUFX2
ABUFX2_11 [_1749__2_] _1749__2_ d_lut_BUFX2
ABUFX2_12 [_1748__1_] _1748__1_ d_lut_BUFX2
ABUFX2_13 [_1749__3_] _1749__3_ d_lut_BUFX2
ABUFX2_14 [_1749__4_] _1749__4_ d_lut_BUFX2
ABUFX2_15 [_1749__5_] _1749__5_ d_lut_BUFX2
ABUFX2_16 [_1749__6_] _1749__6_ d_lut_BUFX2
ABUFX2_17 [_1749__7_] _1749__7_ d_lut_BUFX2
ABUFX2_18 [_1749__8_] _1749__8_ d_lut_BUFX2
ABUFX2_19 [_1749__9_] _1749__9_ d_lut_BUFX2
ABUFX2_20 [_1749__10_] _1749__10_ d_lut_BUFX2
ABUFX2_21 [_1749__11_] _1749__11_ d_lut_BUFX2
ABUFX2_22 [_1749__12_] _1749__12_ d_lut_BUFX2
ABUFX2_23 [_1748__2_] _1748__2_ d_lut_BUFX2
ABUFX2_24 [_1749__13_] _1749__13_ d_lut_BUFX2
ABUFX2_25 [_1749__14_] _1749__14_ d_lut_BUFX2
ABUFX2_26 [_1749__15_] _1749__15_ d_lut_BUFX2
ABUFX2_27 [_1748__3_] _1748__3_ d_lut_BUFX2
ABUFX2_28 [_1748__4_] _1748__4_ d_lut_BUFX2
ABUFX2_29 [_1748__5_] _1748__5_ d_lut_BUFX2
ABUFX2_30 [_1748__6_] _1748__6_ d_lut_BUFX2
ABUFX2_31 [_1748__7_] _1748__7_ d_lut_BUFX2
ABUFX2_32 [_1748__8_] _1748__8_ d_lut_BUFX2
ABUFX4_1 [clk] clk_hier0_bF_buf6 d_lut_BUFX4
ABUFX4_2 [_397_] _397__bF_buf2 d_lut_BUFX4
ABUFX4_3 [clk_hier0_bF_buf0] clk_bF_buf8 d_lut_BUFX4
ABUFX4_4 [clk_hier0_bF_buf0] clk_bF_buf7 d_lut_BUFX4
ABUFX4_5 [clk_hier0_bF_buf3] clk_bF_buf6 d_lut_BUFX4
ABUFX4_6 [clk_hier0_bF_buf6] clk_bF_buf5 d_lut_BUFX4
ABUFX4_7 [clk_hier0_bF_buf3] clk_bF_buf4 d_lut_BUFX4
ABUFX4_8 [clk_hier0_bF_buf6] clk_bF_buf3 d_lut_BUFX4
ABUFX4_9 [clk_hier0_bF_buf5] clk_bF_buf2 d_lut_BUFX4
ABUFX4_10 [clk_hier0_bF_buf1] clk_bF_buf1 d_lut_BUFX4
ABUFX4_11 [clk_hier0_bF_buf3] clk_bF_buf0 d_lut_BUFX4
ABUFX4_12 [_1653_] _1653__bF_buf3 d_lut_BUFX4
ABUFX4_13 [_397_] _397__bF_buf1 d_lut_BUFX4
ABUFX4_14 [_1653_] _1653__bF_buf2 d_lut_BUFX4
ABUFX4_15 [_1653_] _1653__bF_buf1 d_lut_BUFX4
ABUFX4_16 [_1653_] _1653__bF_buf0 d_lut_BUFX4
ABUFX4_17 [_1268_] _1268__bF_buf6 d_lut_BUFX4
ABUFX4_18 [_1268_] _1268__bF_buf5 d_lut_BUFX4
ABUFX4_19 [_1268_] _1268__bF_buf4 d_lut_BUFX4
ABUFX4_20 [_1268_] _1268__bF_buf3 d_lut_BUFX4
ABUFX4_21 [_1268_] _1268__bF_buf2 d_lut_BUFX4
ABUFX4_22 [_1268_] _1268__bF_buf1 d_lut_BUFX4
ABUFX4_23 [_1268_] _1268__bF_buf0 d_lut_BUFX4
ABUFX4_24 [_397_] _397__bF_buf0 d_lut_BUFX4
ABUFX4_25 [_1647_] _1647__bF_buf3 d_lut_BUFX4
ABUFX4_26 [_1647_] _1647__bF_buf2 d_lut_BUFX4
ABUFX4_27 [_1647_] _1647__bF_buf1 d_lut_BUFX4
ABUFX4_28 [_1647_] _1647__bF_buf0 d_lut_BUFX4
ABUFX4_29 [_1641_] _1641__bF_buf3 d_lut_BUFX4
ABUFX4_30 [_1641_] _1641__bF_buf2 d_lut_BUFX4
ABUFX4_31 [_1641_] _1641__bF_buf1 d_lut_BUFX4
ABUFX4_32 [_1641_] _1641__bF_buf0 d_lut_BUFX4
ABUFX4_33 [_1735_] _1735__bF_buf3 d_lut_BUFX4
ABUFX4_34 [_1735_] _1735__bF_buf2 d_lut_BUFX4
ABUFX4_35 [_644_] _644__bF_buf6 d_lut_BUFX4
ABUFX4_36 [_1735_] _1735__bF_buf1 d_lut_BUFX4
ABUFX4_37 [_1735_] _1735__bF_buf0 d_lut_BUFX4
ABUFX4_38 [_1294_] _1294__bF_buf6 d_lut_BUFX4
ABUFX4_39 [_1294_] _1294__bF_buf5 d_lut_BUFX4
ABUFX4_40 [_1294_] _1294__bF_buf4 d_lut_BUFX4
ABUFX4_41 [_1294_] _1294__bF_buf3 d_lut_BUFX4
ABUFX4_42 [_1294_] _1294__bF_buf2 d_lut_BUFX4
ABUFX4_43 [_1294_] _1294__bF_buf1 d_lut_BUFX4
ABUFX4_44 [_1294_] _1294__bF_buf0 d_lut_BUFX4
ABUFX4_45 [_414_] _414__bF_buf4 d_lut_BUFX4
ABUFX4_46 [_644_] _644__bF_buf5 d_lut_BUFX4
ABUFX4_47 [_414_] _414__bF_buf3 d_lut_BUFX4
ABUFX4_48 [_414_] _414__bF_buf2 d_lut_BUFX4
ABUFX4_49 [_414_] _414__bF_buf1 d_lut_BUFX4
ABUFX4_50 [_414_] _414__bF_buf0 d_lut_BUFX4
ABUFX4_51 [_1635_] _1635__bF_buf3 d_lut_BUFX4
ABUFX4_52 [_1635_] _1635__bF_buf2 d_lut_BUFX4
ABUFX4_53 [_1635_] _1635__bF_buf1 d_lut_BUFX4
ABUFX4_54 [_1635_] _1635__bF_buf0 d_lut_BUFX4
ABUFX4_55 [_640_] _640__bF_buf6 d_lut_BUFX4
ABUFX4_56 [_640_] _640__bF_buf5 d_lut_BUFX4
ABUFX4_57 [_644_] _644__bF_buf4 d_lut_BUFX4
ABUFX4_58 [_640_] _640__bF_buf4 d_lut_BUFX4
ABUFX4_59 [_640_] _640__bF_buf3 d_lut_BUFX4
ABUFX4_60 [_640_] _640__bF_buf2 d_lut_BUFX4
ABUFX4_61 [_640_] _640__bF_buf1 d_lut_BUFX4
ABUFX4_62 [_640_] _640__bF_buf0 d_lut_BUFX4
ABUFX4_63 [_1629_] _1629__bF_buf3 d_lut_BUFX4
ABUFX4_64 [_1629_] _1629__bF_buf2 d_lut_BUFX4
ABUFX4_65 [_1629_] _1629__bF_buf1 d_lut_BUFX4
ABUFX4_66 [_1629_] _1629__bF_buf0 d_lut_BUFX4
ABUFX4_67 [_1699_] _1699__bF_buf4 d_lut_BUFX4
ABUFX4_68 [_644_] _644__bF_buf3 d_lut_BUFX4
ABUFX4_69 [_1699_] _1699__bF_buf3 d_lut_BUFX4
ABUFX4_70 [_1699_] _1699__bF_buf2 d_lut_BUFX4
ABUFX4_71 [_1699_] _1699__bF_buf1 d_lut_BUFX4
ABUFX4_72 [_1699_] _1699__bF_buf0 d_lut_BUFX4
ABUFX4_73 [_1661_] _1661__bF_buf4 d_lut_BUFX4
ABUFX4_74 [_1661_] _1661__bF_buf3 d_lut_BUFX4
ABUFX4_75 [_1661_] _1661__bF_buf2 d_lut_BUFX4
ABUFX4_76 [_1661_] _1661__bF_buf1 d_lut_BUFX4
ABUFX4_77 [_1661_] _1661__bF_buf0 d_lut_BUFX4
ABUFX4_78 [_1655_] _1655__bF_buf3 d_lut_BUFX4
ABUFX4_79 [_644_] _644__bF_buf2 d_lut_BUFX4
ABUFX4_80 [_1655_] _1655__bF_buf2 d_lut_BUFX4
ABUFX4_81 [_1655_] _1655__bF_buf1 d_lut_BUFX4
ABUFX4_82 [_1655_] _1655__bF_buf0 d_lut_BUFX4
ABUFX4_83 [_431_] _431__bF_buf4 d_lut_BUFX4
ABUFX4_84 [_431_] _431__bF_buf3 d_lut_BUFX4
ABUFX4_85 [_431_] _431__bF_buf2 d_lut_BUFX4
ABUFX4_86 [_431_] _431__bF_buf1 d_lut_BUFX4
ABUFX4_87 [_431_] _431__bF_buf0 d_lut_BUFX4
ABUFX4_88 [_1649_] _1649__bF_buf3 d_lut_BUFX4
ABUFX4_89 [_1649_] _1649__bF_buf2 d_lut_BUFX4
ABUFX4_90 [_644_] _644__bF_buf1 d_lut_BUFX4
ABUFX4_91 [_1649_] _1649__bF_buf1 d_lut_BUFX4
ABUFX4_92 [_1649_] _1649__bF_buf0 d_lut_BUFX4
ABUFX4_93 [_1264_] _1264__bF_buf4 d_lut_BUFX4
ABUFX4_94 [_1264_] _1264__bF_buf3 d_lut_BUFX4
ABUFX4_95 [_1264_] _1264__bF_buf2 d_lut_BUFX4
ABUFX4_96 [_1264_] _1264__bF_buf1 d_lut_BUFX4
ABUFX4_97 [_1264_] _1264__bF_buf0 d_lut_BUFX4
ABUFX4_98 [_1587_] _1587__bF_buf4 d_lut_BUFX4
ABUFX4_99 [_1587_] _1587__bF_buf3 d_lut_BUFX4
ABUFX4_100 [_1587_] _1587__bF_buf2 d_lut_BUFX4
ABUFX4_101 [_644_] _644__bF_buf0 d_lut_BUFX4
ABUFX4_102 [_1587_] _1587__bF_buf1 d_lut_BUFX4
ABUFX4_103 [_1587_] _1587__bF_buf0 d_lut_BUFX4
ABUFX4_104 [_1643_] _1643__bF_buf3 d_lut_BUFX4
ABUFX4_105 [_1643_] _1643__bF_buf2 d_lut_BUFX4
ABUFX4_106 [_1643_] _1643__bF_buf1 d_lut_BUFX4
ABUFX4_107 [_1643_] _1643__bF_buf0 d_lut_BUFX4
ABUFX4_108 [_1681_] _1681__bF_buf4 d_lut_BUFX4
ABUFX4_109 [_1681_] _1681__bF_buf3 d_lut_BUFX4
ABUFX4_110 [_1681_] _1681__bF_buf2 d_lut_BUFX4
ABUFX4_111 [_1681_] _1681__bF_buf1 d_lut_BUFX4
ABUFX4_112 [clk] clk_hier0_bF_buf5 d_lut_BUFX4
ABUFX4_113 [_585_] _585__bF_buf4 d_lut_BUFX4
ABUFX4_114 [_1681_] _1681__bF_buf0 d_lut_BUFX4
ABUFX4_115 [_1637_] _1637__bF_buf3 d_lut_BUFX4
ABUFX4_116 [_1637_] _1637__bF_buf2 d_lut_BUFX4
ABUFX4_117 [_1637_] _1637__bF_buf1 d_lut_BUFX4
ABUFX4_118 [_1637_] _1637__bF_buf0 d_lut_BUFX4
ABUFX4_119 [_448_] _448__bF_buf4 d_lut_BUFX4
ABUFX4_120 [_448_] _448__bF_buf3 d_lut_BUFX4
ABUFX4_121 [_448_] _448__bF_buf2 d_lut_BUFX4
ABUFX4_122 [_448_] _448__bF_buf1 d_lut_BUFX4
ABUFX4_123 [_448_] _448__bF_buf0 d_lut_BUFX4
ABUFX4_124 [_585_] _585__bF_buf3 d_lut_BUFX4
ABUFX4_125 [_1631_] _1631__bF_buf3 d_lut_BUFX4
ABUFX4_126 [_1631_] _1631__bF_buf2 d_lut_BUFX4
ABUFX4_127 [_1631_] _1631__bF_buf1 d_lut_BUFX4
ABUFX4_128 [_1631_] _1631__bF_buf0 d_lut_BUFX4
ABUFX4_129 [_636_] _636__bF_buf4 d_lut_BUFX4
ABUFX4_130 [_636_] _636__bF_buf3 d_lut_BUFX4
ABUFX4_131 [_636_] _636__bF_buf2 d_lut_BUFX4
ABUFX4_132 [_636_] _636__bF_buf1 d_lut_BUFX4
ABUFX4_133 [_636_] _636__bF_buf0 d_lut_BUFX4
ABUFX4_134 [_501_] _501__bF_buf4 d_lut_BUFX4
ABUFX4_135 [_585_] _585__bF_buf2 d_lut_BUFX4
ABUFX4_136 [_501_] _501__bF_buf3 d_lut_BUFX4
ABUFX4_137 [_501_] _501__bF_buf2 d_lut_BUFX4
ABUFX4_138 [_501_] _501__bF_buf1 d_lut_BUFX4
ABUFX4_139 [_501_] _501__bF_buf0 d_lut_BUFX4
ABUFX4_140 [_536_] _536__bF_buf4 d_lut_BUFX4
ABUFX4_141 [_536_] _536__bF_buf3 d_lut_BUFX4
ABUFX4_142 [_536_] _536__bF_buf2 d_lut_BUFX4
ABUFX4_143 [_536_] _536__bF_buf1 d_lut_BUFX4
ABUFX4_144 [_536_] _536__bF_buf0 d_lut_BUFX4
ABUFX4_145 [_1278_] _1278__bF_buf5 d_lut_BUFX4
ABUFX4_146 [_585_] _585__bF_buf1 d_lut_BUFX4
ABUFX4_147 [_1278_] _1278__bF_buf4 d_lut_BUFX4
ABUFX4_148 [_1278_] _1278__bF_buf3 d_lut_BUFX4
ABUFX4_149 [_1278_] _1278__bF_buf2 d_lut_BUFX4
ABUFX4_150 [_1278_] _1278__bF_buf1 d_lut_BUFX4
ABUFX4_151 [_1278_] _1278__bF_buf0 d_lut_BUFX4
ABUFX4_152 [_1622_] _1622__bF_buf3 d_lut_BUFX4
ABUFX4_153 [_1622_] _1622__bF_buf2 d_lut_BUFX4
ABUFX4_154 [_1622_] _1622__bF_buf1 d_lut_BUFX4
ABUFX4_155 [_1622_] _1622__bF_buf0 d_lut_BUFX4
ABUFX4_156 [_380_] _380__bF_buf4 d_lut_BUFX4
ABUFX4_157 [_585_] _585__bF_buf0 d_lut_BUFX4
ABUFX4_158 [_380_] _380__bF_buf3 d_lut_BUFX4
ABUFX4_159 [_380_] _380__bF_buf2 d_lut_BUFX4
ABUFX4_160 [_380_] _380__bF_buf1 d_lut_BUFX4
ABUFX4_161 [_380_] _380__bF_buf0 d_lut_BUFX4
ABUFX4_162 [_1657_] _1657__bF_buf3 d_lut_BUFX4
ABUFX4_163 [_1657_] _1657__bF_buf2 d_lut_BUFX4
ABUFX4_164 [_1657_] _1657__bF_buf1 d_lut_BUFX4
ABUFX4_165 [_1657_] _1657__bF_buf0 d_lut_BUFX4
ABUFX4_166 [_568_] _568__bF_buf4 d_lut_BUFX4
ABUFX4_167 [_568_] _568__bF_buf3 d_lut_BUFX4
ABUFX4_168 [_603_] _603__bF_buf4 d_lut_BUFX4
ABUFX4_169 [_568_] _568__bF_buf2 d_lut_BUFX4
ABUFX4_170 [_568_] _568__bF_buf1 d_lut_BUFX4
ABUFX4_171 [_568_] _568__bF_buf0 d_lut_BUFX4
ABUFX4_172 [_1275_] _1275__bF_buf4 d_lut_BUFX4
ABUFX4_173 [_1275_] _1275__bF_buf3 d_lut_BUFX4
ABUFX4_174 [_1275_] _1275__bF_buf2 d_lut_BUFX4
ABUFX4_175 [_1275_] _1275__bF_buf1 d_lut_BUFX4
ABUFX4_176 [_1275_] _1275__bF_buf0 d_lut_BUFX4
ABUFX4_177 [_1272_] _1272__bF_buf6 d_lut_BUFX4
ABUFX4_178 [_1272_] _1272__bF_buf5 d_lut_BUFX4
ABUFX4_179 [_603_] _603__bF_buf3 d_lut_BUFX4
ABUFX4_180 [_1272_] _1272__bF_buf4 d_lut_BUFX4
ABUFX4_181 [_1272_] _1272__bF_buf3 d_lut_BUFX4
ABUFX4_182 [_1272_] _1272__bF_buf2 d_lut_BUFX4
ABUFX4_183 [_1272_] _1272__bF_buf1 d_lut_BUFX4
ABUFX4_184 [_1272_] _1272__bF_buf0 d_lut_BUFX4
ABUFX4_185 [_1651_] _1651__bF_buf3 d_lut_BUFX4
ABUFX4_186 [_1651_] _1651__bF_buf2 d_lut_BUFX4
ABUFX4_187 [_1651_] _1651__bF_buf1 d_lut_BUFX4
ABUFX4_188 [_1651_] _1651__bF_buf0 d_lut_BUFX4
ABUFX4_189 [_465_] _465__bF_buf4 d_lut_BUFX4
ABUFX4_190 [_603_] _603__bF_buf2 d_lut_BUFX4
ABUFX4_191 [_465_] _465__bF_buf3 d_lut_BUFX4
ABUFX4_192 [_465_] _465__bF_buf2 d_lut_BUFX4
ABUFX4_193 [_465_] _465__bF_buf1 d_lut_BUFX4
ABUFX4_194 [_465_] _465__bF_buf0 d_lut_BUFX4
ABUFX4_195 [REG_Interrupt_flag] REG_Interrupt_flag_bF_buf13 d_lut_BUFX4
ABUFX4_196 [REG_Interrupt_flag] REG_Interrupt_flag_bF_buf12 d_lut_BUFX4
ABUFX4_197 [REG_Interrupt_flag] REG_Interrupt_flag_bF_buf11 d_lut_BUFX4
ABUFX4_198 [REG_Interrupt_flag] REG_Interrupt_flag_bF_buf10 d_lut_BUFX4
ABUFX4_199 [REG_Interrupt_flag] REG_Interrupt_flag_bF_buf9 d_lut_BUFX4
ABUFX4_200 [REG_Interrupt_flag] REG_Interrupt_flag_bF_buf8 d_lut_BUFX4
ABUFX4_201 [_603_] _603__bF_buf1 d_lut_BUFX4
ABUFX4_202 [REG_Interrupt_flag] REG_Interrupt_flag_bF_buf7 d_lut_BUFX4
ABUFX4_203 [REG_Interrupt_flag] REG_Interrupt_flag_bF_buf6 d_lut_BUFX4
ABUFX4_204 [REG_Interrupt_flag] REG_Interrupt_flag_bF_buf5 d_lut_BUFX4
ABUFX4_205 [REG_Interrupt_flag] REG_Interrupt_flag_bF_buf4 d_lut_BUFX4
ABUFX4_206 [REG_Interrupt_flag] REG_Interrupt_flag_bF_buf3 d_lut_BUFX4
ABUFX4_207 [REG_Interrupt_flag] REG_Interrupt_flag_bF_buf2 d_lut_BUFX4
ABUFX4_208 [REG_Interrupt_flag] REG_Interrupt_flag_bF_buf1 d_lut_BUFX4
ABUFX4_209 [REG_Interrupt_flag] REG_Interrupt_flag_bF_buf0 d_lut_BUFX4
ABUFX4_210 [_518_] _518__bF_buf4 d_lut_BUFX4
ABUFX4_211 [_518_] _518__bF_buf3 d_lut_BUFX4
ABUFX4_212 [_603_] _603__bF_buf0 d_lut_BUFX4
ABUFX4_213 [_518_] _518__bF_buf2 d_lut_BUFX4
ABUFX4_214 [_518_] _518__bF_buf1 d_lut_BUFX4
ABUFX4_215 [_518_] _518__bF_buf0 d_lut_BUFX4
ABUFX4_216 [_1645_] _1645__bF_buf3 d_lut_BUFX4
ABUFX4_217 [_1645_] _1645__bF_buf2 d_lut_BUFX4
ABUFX4_218 [_1645_] _1645__bF_buf1 d_lut_BUFX4
ABUFX4_219 [_1645_] _1645__bF_buf0 d_lut_BUFX4
ABUFX4_220 [_650_] _650__bF_buf5 d_lut_BUFX4
ABUFX4_221 [_650_] _650__bF_buf4 d_lut_BUFX4
ABUFX4_222 [_650_] _650__bF_buf3 d_lut_BUFX4
ABUFX4_223 [clk] clk_hier0_bF_buf4 d_lut_BUFX4
ABUFX4_224 [_1633_] _1633__bF_buf3 d_lut_BUFX4
ABUFX4_225 [_650_] _650__bF_buf2 d_lut_BUFX4
ABUFX4_226 [_650_] _650__bF_buf1 d_lut_BUFX4
ABUFX4_227 [_650_] _650__bF_buf0 d_lut_BUFX4
ABUFX4_228 [_1604_] _1604__bF_buf4 d_lut_BUFX4
ABUFX4_229 [_1604_] _1604__bF_buf3 d_lut_BUFX4
ABUFX4_230 [_1604_] _1604__bF_buf2 d_lut_BUFX4
ABUFX4_231 [_1604_] _1604__bF_buf1 d_lut_BUFX4
ABUFX4_232 [_1604_] _1604__bF_buf0 d_lut_BUFX4
ABUFX4_233 [_362_] _362__bF_buf4 d_lut_BUFX4
ABUFX4_234 [_362_] _362__bF_buf3 d_lut_BUFX4
ABUFX4_235 [_1633_] _1633__bF_buf2 d_lut_BUFX4
ABUFX4_236 [_362_] _362__bF_buf2 d_lut_BUFX4
ABUFX4_237 [_362_] _362__bF_buf1 d_lut_BUFX4
ABUFX4_238 [_362_] _362__bF_buf0 d_lut_BUFX4
ABUFX4_239 [_647_] _647__bF_buf4 d_lut_BUFX4
ABUFX4_240 [_647_] _647__bF_buf3 d_lut_BUFX4
ABUFX4_241 [_647_] _647__bF_buf2 d_lut_BUFX4
ABUFX4_242 [_647_] _647__bF_buf1 d_lut_BUFX4
ABUFX4_243 [_647_] _647__bF_buf0 d_lut_BUFX4
ABUFX4_244 [_1639_] _1639__bF_buf3 d_lut_BUFX4
ABUFX4_245 [_1639_] _1639__bF_buf2 d_lut_BUFX4
ABUFX4_246 [_1633_] _1633__bF_buf1 d_lut_BUFX4
ABUFX4_247 [_1639_] _1639__bF_buf1 d_lut_BUFX4
ABUFX4_248 [_1639_] _1639__bF_buf0 d_lut_BUFX4
ABUFX4_249 [_1633_] _1633__bF_buf0 d_lut_BUFX4
ABUFX4_250 [_673_] _673__bF_buf6 d_lut_BUFX4
ABUFX4_251 [_673_] _673__bF_buf5 d_lut_BUFX4
ABUFX4_252 [_673_] _673__bF_buf4 d_lut_BUFX4
ABUFX4_253 [_673_] _673__bF_buf3 d_lut_BUFX4
ABUFX4_254 [_673_] _673__bF_buf2 d_lut_BUFX4
ABUFX4_255 [_673_] _673__bF_buf1 d_lut_BUFX4
ABUFX4_256 [clk] clk_hier0_bF_buf3 d_lut_BUFX4
ABUFX4_257 [_673_] _673__bF_buf0 d_lut_BUFX4
ABUFX4_258 [_482_] _482__bF_buf4 d_lut_BUFX4
ABUFX4_259 [_482_] _482__bF_buf3 d_lut_BUFX4
ABUFX4_260 [_482_] _482__bF_buf2 d_lut_BUFX4
ABUFX4_261 [_482_] _482__bF_buf1 d_lut_BUFX4
ABUFX4_262 [_482_] _482__bF_buf0 d_lut_BUFX4
ABUFX4_263 [_1627_] _1627__bF_buf4 d_lut_BUFX4
ABUFX4_264 [_1627_] _1627__bF_buf3 d_lut_BUFX4
ABUFX4_265 [_1627_] _1627__bF_buf2 d_lut_BUFX4
ABUFX4_266 [_1627_] _1627__bF_buf1 d_lut_BUFX4
ABUFX4_267 [clk] clk_hier0_bF_buf2 d_lut_BUFX4
ABUFX4_268 [_1627_] _1627__bF_buf0 d_lut_BUFX4
ABUFX4_269 [_1718_] _1718__bF_buf4 d_lut_BUFX4
ABUFX4_270 [_1718_] _1718__bF_buf3 d_lut_BUFX4
ABUFX4_271 [_1718_] _1718__bF_buf2 d_lut_BUFX4
ABUFX4_272 [_1718_] _1718__bF_buf1 d_lut_BUFX4
ABUFX4_273 [_1718_] _1718__bF_buf0 d_lut_BUFX4
ABUFX4_274 [_1621_] _1621__bF_buf3 d_lut_BUFX4
ABUFX4_275 [_1621_] _1621__bF_buf2 d_lut_BUFX4
ABUFX4_276 [_1621_] _1621__bF_buf1 d_lut_BUFX4
ABUFX4_277 [_1621_] _1621__bF_buf0 d_lut_BUFX4
ABUFX4_278 [clk] clk_hier0_bF_buf1 d_lut_BUFX4
ABUFX4_279 [clk_hier0_bF_buf2] clk_bF_buf48 d_lut_BUFX4
ABUFX4_280 [clk_hier0_bF_buf3] clk_bF_buf47 d_lut_BUFX4
ABUFX4_281 [clk_hier0_bF_buf4] clk_bF_buf46 d_lut_BUFX4
ABUFX4_282 [clk_hier0_bF_buf2] clk_bF_buf45 d_lut_BUFX4
ABUFX4_283 [clk_hier0_bF_buf5] clk_bF_buf44 d_lut_BUFX4
ABUFX4_284 [clk_hier0_bF_buf6] clk_bF_buf43 d_lut_BUFX4
ABUFX4_285 [clk_hier0_bF_buf0] clk_bF_buf42 d_lut_BUFX4
ABUFX4_286 [clk_hier0_bF_buf4] clk_bF_buf41 d_lut_BUFX4
ABUFX4_287 [clk_hier0_bF_buf2] clk_bF_buf40 d_lut_BUFX4
ABUFX4_288 [clk_hier0_bF_buf4] clk_bF_buf39 d_lut_BUFX4
ABUFX4_289 [clk] clk_hier0_bF_buf0 d_lut_BUFX4
ABUFX4_290 [clk_hier0_bF_buf4] clk_bF_buf38 d_lut_BUFX4
ABUFX4_291 [clk_hier0_bF_buf1] clk_bF_buf37 d_lut_BUFX4
ABUFX4_292 [clk_hier0_bF_buf0] clk_bF_buf36 d_lut_BUFX4
ABUFX4_293 [clk_hier0_bF_buf4] clk_bF_buf35 d_lut_BUFX4
ABUFX4_294 [clk_hier0_bF_buf1] clk_bF_buf34 d_lut_BUFX4
ABUFX4_295 [clk_hier0_bF_buf5] clk_bF_buf33 d_lut_BUFX4
ABUFX4_296 [clk_hier0_bF_buf2] clk_bF_buf32 d_lut_BUFX4
ABUFX4_297 [clk_hier0_bF_buf2] clk_bF_buf31 d_lut_BUFX4
ABUFX4_298 [clk_hier0_bF_buf5] clk_bF_buf30 d_lut_BUFX4
ABUFX4_299 [clk_hier0_bF_buf5] clk_bF_buf29 d_lut_BUFX4
ABUFX4_300 [_397_] _397__bF_buf4 d_lut_BUFX4
ABUFX4_301 [clk_hier0_bF_buf1] clk_bF_buf28 d_lut_BUFX4
ABUFX4_302 [clk_hier0_bF_buf0] clk_bF_buf27 d_lut_BUFX4
ABUFX4_303 [clk_hier0_bF_buf4] clk_bF_buf26 d_lut_BUFX4
ABUFX4_304 [clk_hier0_bF_buf4] clk_bF_buf25 d_lut_BUFX4
ABUFX4_305 [clk_hier0_bF_buf5] clk_bF_buf24 d_lut_BUFX4
ABUFX4_306 [clk_hier0_bF_buf6] clk_bF_buf23 d_lut_BUFX4
ABUFX4_307 [clk_hier0_bF_buf6] clk_bF_buf22 d_lut_BUFX4
ABUFX4_308 [clk_hier0_bF_buf1] clk_bF_buf21 d_lut_BUFX4
ABUFX4_309 [clk_hier0_bF_buf3] clk_bF_buf20 d_lut_BUFX4
ABUFX4_310 [clk_hier0_bF_buf6] clk_bF_buf19 d_lut_BUFX4
ABUFX4_311 [_397_] _397__bF_buf3 d_lut_BUFX4
ABUFX4_312 [clk_hier0_bF_buf1] clk_bF_buf18 d_lut_BUFX4
ABUFX4_313 [clk_hier0_bF_buf3] clk_bF_buf17 d_lut_BUFX4
ABUFX4_314 [clk_hier0_bF_buf6] clk_bF_buf16 d_lut_BUFX4
ABUFX4_315 [clk_hier0_bF_buf1] clk_bF_buf15 d_lut_BUFX4
ABUFX4_316 [clk_hier0_bF_buf0] clk_bF_buf14 d_lut_BUFX4
ABUFX4_317 [clk_hier0_bF_buf3] clk_bF_buf13 d_lut_BUFX4
ABUFX4_318 [clk_hier0_bF_buf2] clk_bF_buf12 d_lut_BUFX4
ABUFX4_319 [clk_hier0_bF_buf0] clk_bF_buf11 d_lut_BUFX4
ABUFX4_320 [clk_hier0_bF_buf5] clk_bF_buf10 d_lut_BUFX4
ABUFX4_321 [clk_hier0_bF_buf2] clk_bF_buf9 d_lut_BUFX4
ADFFPOSX1_1 _32_ clk_bF_buf46 NULL NULL FIRQ_REGS_4__0_ NULL ddflop
ADFFPOSX1_2 _41_ clk_bF_buf9 NULL NULL FIRQ_REGS_4__9_ NULL ddflop
ADFFPOSX1_3 _339_ clk_bF_buf34 NULL NULL FIRQ_REGS_0__3_ NULL ddflop
ADFFPOSX1_4 _340_ clk_bF_buf4 NULL NULL FIRQ_REGS_0__4_ NULL ddflop
ADFFPOSX1_5 _341_ clk_bF_buf37 NULL NULL FIRQ_REGS_0__5_ NULL ddflop
ADFFPOSX1_6 _342_ clk_bF_buf4 NULL NULL FIRQ_REGS_0__6_ NULL ddflop
ADFFPOSX1_7 _343_ clk_bF_buf34 NULL NULL FIRQ_REGS_0__7_ NULL ddflop
ADFFPOSX1_8 _344_ clk_bF_buf8 NULL NULL FIRQ_REGS_0__8_ NULL ddflop
ADFFPOSX1_9 _345_ clk_bF_buf37 NULL NULL FIRQ_REGS_0__9_ NULL ddflop
ADFFPOSX1_10 _346_ clk_bF_buf11 NULL NULL FIRQ_REGS_0__10_ NULL ddflop
ADFFPOSX1_11 _347_ clk_bF_buf34 NULL NULL FIRQ_REGS_0__11_ NULL ddflop
ADFFPOSX1_12 _348_ clk_bF_buf14 NULL NULL FIRQ_REGS_0__12_ NULL ddflop
ADFFPOSX1_13 _42_ clk_bF_buf41 NULL NULL FIRQ_REGS_4__10_ NULL ddflop
ADFFPOSX1_14 _349_ clk_bF_buf11 NULL NULL FIRQ_REGS_0__13_ NULL ddflop
ADFFPOSX1_15 _350_ clk_bF_buf34 NULL NULL FIRQ_REGS_0__14_ NULL ddflop
ADFFPOSX1_16 _351_ clk_bF_buf8 NULL NULL FIRQ_REGS_0__15_ NULL ddflop
ADFFPOSX1_17 _0_ clk_bF_buf6 NULL NULL FIRQ_REGS_2__0_ NULL ddflop
ADFFPOSX1_18 _1_ clk_bF_buf38 NULL NULL FIRQ_REGS_2__1_ NULL ddflop
ADFFPOSX1_19 _2_ clk_bF_buf25 NULL NULL FIRQ_REGS_2__2_ NULL ddflop
ADFFPOSX1_20 _3_ clk_bF_buf10 NULL NULL FIRQ_REGS_2__3_ NULL ddflop
ADFFPOSX1_21 _4_ clk_bF_buf24 NULL NULL FIRQ_REGS_2__4_ NULL ddflop
ADFFPOSX1_22 _5_ clk_bF_buf24 NULL NULL FIRQ_REGS_2__5_ NULL ddflop
ADFFPOSX1_23 _6_ clk_bF_buf10 NULL NULL FIRQ_REGS_2__6_ NULL ddflop
ADFFPOSX1_24 _43_ clk_bF_buf44 NULL NULL FIRQ_REGS_4__11_ NULL ddflop
ADFFPOSX1_25 _7_ clk_bF_buf2 NULL NULL FIRQ_REGS_2__7_ NULL ddflop
ADFFPOSX1_26 _8_ clk_bF_buf26 NULL NULL FIRQ_REGS_2__8_ NULL ddflop
ADFFPOSX1_27 _9_ clk_bF_buf44 NULL NULL FIRQ_REGS_2__9_ NULL ddflop
ADFFPOSX1_28 _10_ clk_bF_buf35 NULL NULL FIRQ_REGS_2__10_ NULL ddflop
ADFFPOSX1_29 _11_ clk_bF_buf44 NULL NULL FIRQ_REGS_2__11_ NULL ddflop
ADFFPOSX1_30 _12_ clk_bF_buf38 NULL NULL FIRQ_REGS_2__12_ NULL ddflop
ADFFPOSX1_31 _13_ clk_bF_buf26 NULL NULL FIRQ_REGS_2__13_ NULL ddflop
ADFFPOSX1_32 _14_ clk_bF_buf44 NULL NULL FIRQ_REGS_2__14_ NULL ddflop
ADFFPOSX1_33 _15_ clk_bF_buf39 NULL NULL FIRQ_REGS_2__15_ NULL ddflop
ADFFPOSX1_34 _112_ clk_bF_buf6 NULL NULL USR_REGS_1__0_ NULL ddflop
ADFFPOSX1_35 _44_ clk_bF_buf46 NULL NULL FIRQ_REGS_4__12_ NULL ddflop
ADFFPOSX1_36 _113_ clk_bF_buf35 NULL NULL USR_REGS_1__1_ NULL ddflop
ADFFPOSX1_37 _114_ clk_bF_buf20 NULL NULL USR_REGS_1__2_ NULL ddflop
ADFFPOSX1_38 _115_ clk_bF_buf48 NULL NULL USR_REGS_1__3_ NULL ddflop
ADFFPOSX1_39 _116_ clk_bF_buf9 NULL NULL USR_REGS_1__4_ NULL ddflop
ADFFPOSX1_40 _117_ clk_bF_buf20 NULL NULL USR_REGS_1__5_ NULL ddflop
ADFFPOSX1_41 _118_ clk_bF_buf33 NULL NULL USR_REGS_1__6_ NULL ddflop
ADFFPOSX1_42 _119_ clk_bF_buf42 NULL NULL USR_REGS_1__7_ NULL ddflop
ADFFPOSX1_43 _120_ clk_bF_buf42 NULL NULL USR_REGS_1__8_ NULL ddflop
ADFFPOSX1_44 _121_ clk_bF_buf48 NULL NULL USR_REGS_1__9_ NULL ddflop
ADFFPOSX1_45 _122_ clk_bF_buf35 NULL NULL USR_REGS_1__10_ NULL ddflop
ADFFPOSX1_46 _45_ clk_bF_buf41 NULL NULL FIRQ_REGS_4__13_ NULL ddflop
ADFFPOSX1_47 _123_ clk_bF_buf20 NULL NULL USR_REGS_1__11_ NULL ddflop
ADFFPOSX1_48 _124_ clk_bF_buf25 NULL NULL USR_REGS_1__12_ NULL ddflop
ADFFPOSX1_49 _125_ clk_bF_buf42 NULL NULL USR_REGS_1__13_ NULL ddflop
ADFFPOSX1_50 _126_ clk_bF_buf33 NULL NULL USR_REGS_1__14_ NULL ddflop
ADFFPOSX1_51 _127_ clk_bF_buf38 NULL NULL USR_REGS_1__15_ NULL ddflop
ADFFPOSX1_52 _128_ clk_bF_buf25 NULL NULL USR_REGS_2__0_ NULL ddflop
ADFFPOSX1_53 _129_ clk_bF_buf5 NULL NULL USR_REGS_2__1_ NULL ddflop
ADFFPOSX1_54 _130_ clk_bF_buf25 NULL NULL USR_REGS_2__2_ NULL ddflop
ADFFPOSX1_55 _131_ clk_bF_buf44 NULL NULL USR_REGS_2__3_ NULL ddflop
ADFFPOSX1_56 _132_ clk_bF_buf2 NULL NULL USR_REGS_2__4_ NULL ddflop
ADFFPOSX1_57 _46_ clk_bF_buf12 NULL NULL FIRQ_REGS_4__14_ NULL ddflop
ADFFPOSX1_58 _133_ clk_bF_buf2 NULL NULL USR_REGS_2__5_ NULL ddflop
ADFFPOSX1_59 _134_ clk_bF_buf44 NULL NULL USR_REGS_2__6_ NULL ddflop
ADFFPOSX1_60 _135_ clk_bF_buf6 NULL NULL USR_REGS_2__7_ NULL ddflop
ADFFPOSX1_61 _136_ clk_bF_buf35 NULL NULL USR_REGS_2__8_ NULL ddflop
ADFFPOSX1_62 _137_ clk_bF_buf44 NULL NULL USR_REGS_2__9_ NULL ddflop
ADFFPOSX1_63 _138_ clk_bF_buf35 NULL NULL USR_REGS_2__10_ NULL ddflop
ADFFPOSX1_64 _139_ clk_bF_buf44 NULL NULL USR_REGS_2__11_ NULL ddflop
ADFFPOSX1_65 _140_ clk_bF_buf38 NULL NULL USR_REGS_2__12_ NULL ddflop
ADFFPOSX1_66 _141_ clk_bF_buf26 NULL NULL USR_REGS_2__13_ NULL ddflop
ADFFPOSX1_67 _142_ clk_bF_buf33 NULL NULL USR_REGS_2__14_ NULL ddflop
ADFFPOSX1_68 _47_ clk_bF_buf5 NULL NULL FIRQ_REGS_4__15_ NULL ddflop
ADFFPOSX1_69 _143_ clk_bF_buf38 NULL NULL USR_REGS_2__15_ NULL ddflop
ADFFPOSX1_70 _144_ clk_bF_buf6 NULL NULL USR_REGS_3__0_ NULL ddflop
ADFFPOSX1_71 _145_ clk_bF_buf39 NULL NULL USR_REGS_3__1_ NULL ddflop
ADFFPOSX1_72 _146_ clk_bF_buf2 NULL NULL USR_REGS_3__2_ NULL ddflop
ADFFPOSX1_73 _147_ clk_bF_buf9 NULL NULL USR_REGS_3__3_ NULL ddflop
ADFFPOSX1_74 _148_ clk_bF_buf33 NULL NULL USR_REGS_3__4_ NULL ddflop
ADFFPOSX1_75 _149_ clk_bF_buf6 NULL NULL USR_REGS_3__5_ NULL ddflop
ADFFPOSX1_76 _150_ clk_bF_buf48 NULL NULL USR_REGS_3__6_ NULL ddflop
ADFFPOSX1_77 _151_ clk_bF_buf33 NULL NULL USR_REGS_3__7_ NULL ddflop
ADFFPOSX1_78 _152_ clk_bF_buf5 NULL NULL USR_REGS_3__8_ NULL ddflop
ADFFPOSX1_79 _16_ clk_bF_buf6 NULL NULL FIRQ_REGS_3__0_ NULL ddflop
ADFFPOSX1_80 _153_ clk_bF_buf48 NULL NULL USR_REGS_3__9_ NULL ddflop
ADFFPOSX1_81 _154_ clk_bF_buf3 NULL NULL USR_REGS_3__10_ NULL ddflop
ADFFPOSX1_82 _155_ clk_bF_buf2 NULL NULL USR_REGS_3__11_ NULL ddflop
ADFFPOSX1_83 _156_ clk_bF_buf3 NULL NULL USR_REGS_3__12_ NULL ddflop
ADFFPOSX1_84 _157_ clk_bF_buf42 NULL NULL USR_REGS_3__13_ NULL ddflop
ADFFPOSX1_85 _158_ clk_bF_buf33 NULL NULL USR_REGS_3__14_ NULL ddflop
ADFFPOSX1_86 _159_ clk_bF_buf25 NULL NULL USR_REGS_3__15_ NULL ddflop
ADFFPOSX1_87 _160_ clk_bF_buf46 NULL NULL USR_REGS_4__0_ NULL ddflop
ADFFPOSX1_88 _161_ clk_bF_buf41 NULL NULL USR_REGS_4__1_ NULL ddflop
ADFFPOSX1_89 _162_ clk_bF_buf3 NULL NULL USR_REGS_4__2_ NULL ddflop
ADFFPOSX1_90 _17_ clk_bF_buf39 NULL NULL FIRQ_REGS_3__1_ NULL ddflop
ADFFPOSX1_91 _163_ clk_bF_buf12 NULL NULL USR_REGS_4__3_ NULL ddflop
ADFFPOSX1_92 _164_ clk_bF_buf45 NULL NULL USR_REGS_4__4_ NULL ddflop
ADFFPOSX1_93 _165_ clk_bF_buf10 NULL NULL USR_REGS_4__5_ NULL ddflop
ADFFPOSX1_94 _166_ clk_bF_buf30 NULL NULL USR_REGS_4__6_ NULL ddflop
ADFFPOSX1_95 _167_ clk_bF_buf45 NULL NULL USR_REGS_4__7_ NULL ddflop
ADFFPOSX1_96 _168_ clk_bF_buf41 NULL NULL USR_REGS_4__8_ NULL ddflop
ADFFPOSX1_97 _169_ clk_bF_buf9 NULL NULL USR_REGS_4__9_ NULL ddflop
ADFFPOSX1_98 _170_ clk_bF_buf39 NULL NULL USR_REGS_4__10_ NULL ddflop
ADFFPOSX1_99 _171_ clk_bF_buf10 NULL NULL USR_REGS_4__11_ NULL ddflop
ADFFPOSX1_100 _172_ clk_bF_buf24 NULL NULL USR_REGS_4__12_ NULL ddflop
ADFFPOSX1_101 _18_ clk_bF_buf46 NULL NULL FIRQ_REGS_3__2_ NULL ddflop
ADFFPOSX1_102 _173_ clk_bF_buf26 NULL NULL USR_REGS_4__13_ NULL ddflop