*SPICE netlist created from BLIF module NRISC_ULA by blif2BSpice
.include /usr/local/share/qflow/tech/gscl45nm/gscl45nm.sp
.subckt NRISC_ULA vdd gnd ULA_A<0> ULA_A<1> ULA_A<2> ULA_A<3> ULA_A<4> ULA_A<5> ULA_A<6> ULA_A<7> ULA_A<8> ULA_A<9> ULA_A<10> ULA_A<11> ULA_A<12> ULA_A<13> ULA_A<14> ULA_A<15> ULA_A<16> ULA_A<17> ULA_A<18> ULA_A<19> ULA_A<20> ULA_A<21> ULA_A<22> ULA_A<23> ULA_A<24> ULA_A<25> ULA_A<26> ULA_A<27> ULA_A<28> ULA_A<29> ULA_A<30> ULA_A<31> ULA_B<0> ULA_B<1> ULA_B<2> ULA_B<3> ULA_B<4> ULA_B<5> ULA_B<6> ULA_B<7> ULA_B<8> ULA_B<9> ULA_B<10> ULA_B<11> ULA_B<12> ULA_B<13> ULA_B<14> ULA_B<15> ULA_B<16> ULA_B<17> ULA_B<18> ULA_B<19> ULA_B<20> ULA_B<21> ULA_B<22> ULA_B<23> ULA_B<24> ULA_B<25> ULA_B<26> ULA_B<27> ULA_B<28> ULA_B<29> ULA_B<30> ULA_B<31> ULA_ctrl<0> ULA_ctrl<1> ULA_ctrl<2> ULA_ctrl<3> clk ULA_OUT<0> ULA_OUT<1> ULA_OUT<2> ULA_OUT<3> ULA_OUT<4> ULA_OUT<5> ULA_OUT<6> ULA_OUT<7> ULA_OUT<8> ULA_OUT<9> ULA_OUT<10> ULA_OUT<11> ULA_OUT<12> ULA_OUT<13> ULA_OUT<14> ULA_OUT<15> ULA_OUT<16> ULA_OUT<17> ULA_OUT<18> ULA_OUT<19> ULA_OUT<20> ULA_OUT<21> ULA_OUT<22> ULA_OUT<23> ULA_OUT<24> ULA_OUT<25> ULA_OUT<26> ULA_OUT<27> ULA_OUT<28> ULA_OUT<29> ULA_OUT<30> ULA_OUT<31> ULA_flags<0> ULA_flags<1> ULA_flags<2> 
XBUFX2_1 vdd gnd ULA_ctrl<1> ULA_ctrl_1_bF$buf5 BUFX2
XBUFX2_2 vdd gnd ULA_ctrl<1> ULA_ctrl_1_bF$buf4 BUFX2
XBUFX2_3 vdd gnd ULA_ctrl<1> ULA_ctrl_1_bF$buf3 BUFX2
XBUFX2_4 vdd gnd ULA_ctrl<1> ULA_ctrl_1_bF$buf2 BUFX2
XBUFX2_5 vdd gnd ULA_ctrl<1> ULA_ctrl_1_bF$buf1 BUFX2
XBUFX2_6 vdd gnd ULA_ctrl<1> ULA_ctrl_1_bF$buf0 BUFX2
XBUFX2_7 vdd gnd _447_ _447__bF$buf3 BUFX2
XBUFX2_8 vdd gnd _447_ _447__bF$buf2 BUFX2
XBUFX2_9 vdd gnd _447_ _447__bF$buf1 BUFX2
XBUFX2_10 vdd gnd _447_ _447__bF$buf0 BUFX2
XBUFX2_11 vdd gnd _212_ _212__bF$buf5 BUFX2
XBUFX2_12 vdd gnd _212_ _212__bF$buf4 BUFX2
XBUFX2_13 vdd gnd _212_ _212__bF$buf3 BUFX2
XBUFX2_14 vdd gnd _212_ _212__bF$buf2 BUFX2
XBUFX2_15 vdd gnd _212_ _212__bF$buf1 BUFX2
XBUFX2_16 vdd gnd _212_ _212__bF$buf0 BUFX2
XBUFX2_17 vdd gnd clk clk_bF$buf4 BUFX2
XBUFX2_18 vdd gnd clk clk_bF$buf3 BUFX2
XBUFX2_19 vdd gnd clk clk_bF$buf2 BUFX2
XBUFX2_20 vdd gnd clk clk_bF$buf1 BUFX2
XBUFX2_21 vdd gnd clk clk_bF$buf0 BUFX2
XBUFX2_22 vdd gnd _664_ _664__bF$buf4 BUFX2
XBUFX2_23 vdd gnd _664_ _664__bF$buf3 BUFX2
XBUFX2_24 vdd gnd _664_ _664__bF$buf2 BUFX2
XBUFX2_25 vdd gnd _664_ _664__bF$buf1 BUFX2
XBUFX2_26 vdd gnd _664_ _664__bF$buf0 BUFX2
XBUFX2_27 vdd gnd _244_ _244__bF$buf3 BUFX2
XBUFX2_28 vdd gnd _244_ _244__bF$buf2 BUFX2
XBUFX2_29 vdd gnd _244_ _244__bF$buf1 BUFX2
XBUFX2_30 vdd gnd _244_ _244__bF$buf0 BUFX2
XBUFX2_31 vdd gnd ULA_B<3> ULA_B_3_bF$buf7 BUFX2
XBUFX2_32 vdd gnd ULA_B<3> ULA_B_3_bF$buf6 BUFX2
XBUFX2_33 vdd gnd ULA_B<3> ULA_B_3_bF$buf5 BUFX2
XBUFX2_34 vdd gnd ULA_B<3> ULA_B_3_bF$buf4 BUFX2
XBUFX2_35 vdd gnd ULA_B<3> ULA_B_3_bF$buf3 BUFX2
XBUFX2_36 vdd gnd ULA_B<3> ULA_B_3_bF$buf2 BUFX2
XBUFX2_37 vdd gnd ULA_B<3> ULA_B_3_bF$buf1 BUFX2
XBUFX2_38 vdd gnd ULA_B<3> ULA_B_3_bF$buf0 BUFX2
XBUFX2_39 vdd gnd _74_ _74__bF$buf4 BUFX2
XBUFX2_40 vdd gnd _74_ _74__bF$buf3 BUFX2
XBUFX2_41 vdd gnd _74_ _74__bF$buf2 BUFX2
XBUFX2_42 vdd gnd _74_ _74__bF$buf1 BUFX2
XBUFX2_43 vdd gnd _74_ _74__bF$buf0 BUFX2
XBUFX2_44 vdd gnd _106_ _106__bF$buf4 BUFX2
XBUFX2_45 vdd gnd _106_ _106__bF$buf3 BUFX2
XBUFX2_46 vdd gnd _106_ _106__bF$buf2 BUFX2
XBUFX2_47 vdd gnd _106_ _106__bF$buf1 BUFX2
XBUFX2_48 vdd gnd _106_ _106__bF$buf0 BUFX2
XBUFX2_49 vdd gnd ULA_B<0> ULA_B_0_bF$buf7 BUFX2
XBUFX2_50 vdd gnd ULA_B<0> ULA_B_0_bF$buf6 BUFX2
XBUFX2_51 vdd gnd ULA_B<0> ULA_B_0_bF$buf5 BUFX2
XBUFX2_52 vdd gnd ULA_B<0> ULA_B_0_bF$buf4 BUFX2
XBUFX2_53 vdd gnd ULA_B<0> ULA_B_0_bF$buf3 BUFX2
XBUFX2_54 vdd gnd ULA_B<0> ULA_B_0_bF$buf2 BUFX2
XBUFX2_55 vdd gnd ULA_B<0> ULA_B_0_bF$buf1 BUFX2
XBUFX2_56 vdd gnd ULA_B<0> ULA_B_0_bF$buf0 BUFX2
XBUFX2_57 vdd gnd _138_ _138__bF$buf4 BUFX2
XBUFX2_58 vdd gnd _138_ _138__bF$buf3 BUFX2
XBUFX2_59 vdd gnd _138_ _138__bF$buf2 BUFX2
XBUFX2_60 vdd gnd _138_ _138__bF$buf1 BUFX2
XBUFX2_61 vdd gnd _138_ _138__bF$buf0 BUFX2
XBUFX2_62 vdd gnd _458_ _458__bF$buf3 BUFX2
XBUFX2_63 vdd gnd _458_ _458__bF$buf2 BUFX2
XBUFX2_64 vdd gnd _458_ _458__bF$buf1 BUFX2
XBUFX2_65 vdd gnd _458_ _458__bF$buf0 BUFX2
XBUFX2_66 vdd gnd _705_ _705__bF$buf4 BUFX2
XBUFX2_67 vdd gnd _705_ _705__bF$buf3 BUFX2
XBUFX2_68 vdd gnd _705_ _705__bF$buf2 BUFX2
XBUFX2_69 vdd gnd _705_ _705__bF$buf1 BUFX2
XBUFX2_70 vdd gnd _705_ _705__bF$buf0 BUFX2
XBUFX2_71 vdd gnd _684_ _684__bF$buf6 BUFX2
XBUFX2_72 vdd gnd _684_ _684__bF$buf5 BUFX2
XBUFX2_73 vdd gnd _684_ _684__bF$buf4 BUFX2
XBUFX2_74 vdd gnd _684_ _684__bF$buf3 BUFX2
XBUFX2_75 vdd gnd _684_ _684__bF$buf2 BUFX2
XBUFX2_76 vdd gnd _684_ _684__bF$buf1 BUFX2
XBUFX2_77 vdd gnd _684_ _684__bF$buf0 BUFX2
XBUFX2_78 vdd gnd _490_ _490__bF$buf4 BUFX2
XBUFX2_79 vdd gnd _490_ _490__bF$buf3 BUFX2
XBUFX2_80 vdd gnd _490_ _490__bF$buf2 BUFX2
XBUFX2_81 vdd gnd _490_ _490__bF$buf1 BUFX2
XBUFX2_82 vdd gnd _490_ _490__bF$buf0 BUFX2
XBUFX2_83 vdd gnd ULA_ctrl<0> ULA_ctrl_0_bF$buf5 BUFX2
XBUFX2_84 vdd gnd ULA_ctrl<0> ULA_ctrl_0_bF$buf4 BUFX2
XBUFX2_85 vdd gnd ULA_ctrl<0> ULA_ctrl_0_bF$buf3 BUFX2
XBUFX2_86 vdd gnd ULA_ctrl<0> ULA_ctrl_0_bF$buf2 BUFX2
XBUFX2_87 vdd gnd ULA_ctrl<0> ULA_ctrl_0_bF$buf1 BUFX2
XBUFX2_88 vdd gnd ULA_ctrl<0> ULA_ctrl_0_bF$buf0 BUFX2
XBUFX2_89 vdd gnd _255_ _255__bF$buf6 BUFX2
XBUFX2_90 vdd gnd _255_ _255__bF$buf5 BUFX2
XBUFX2_91 vdd gnd _255_ _255__bF$buf4 BUFX2
XBUFX2_92 vdd gnd _255_ _255__bF$buf3 BUFX2
XBUFX2_93 vdd gnd _255_ _255__bF$buf2 BUFX2
XBUFX2_94 vdd gnd _255_ _255__bF$buf1 BUFX2
XBUFX2_95 vdd gnd _255_ _255__bF$buf0 BUFX2
XBUFX2_96 vdd gnd _149_ _149__bF$buf4 BUFX2
XBUFX2_97 vdd gnd _149_ _149__bF$buf3 BUFX2
XBUFX2_98 vdd gnd _149_ _149__bF$buf2 BUFX2
XBUFX2_99 vdd gnd _149_ _149__bF$buf1 BUFX2
XBUFX2_100 vdd gnd _149_ _149__bF$buf0 BUFX2
XBUFX2_101 vdd gnd _340_ _340__bF$buf5 BUFX2
XBUFX2_102 vdd gnd _340_ _340__bF$buf4 BUFX2
XBUFX2_103 vdd gnd _340_ _340__bF$buf3 BUFX2
XBUFX2_104 vdd gnd _340_ _340__bF$buf2 BUFX2
XBUFX2_105 vdd gnd _340_ _340__bF$buf1 BUFX2
XBUFX2_106 vdd gnd _340_ _340__bF$buf0 BUFX2
XBUFX2_107 vdd gnd ULA_B<2> ULA_B_2_bF$buf7 BUFX2
XBUFX2_108 vdd gnd ULA_B<2> ULA_B_2_bF$buf6 BUFX2
XBUFX2_109 vdd gnd ULA_B<2> ULA_B_2_bF$buf5 BUFX2
XBUFX2_110 vdd gnd ULA_B<2> ULA_B_2_bF$buf4 BUFX2
XBUFX2_111 vdd gnd ULA_B<2> ULA_B_2_bF$buf3 BUFX2
XBUFX2_112 vdd gnd ULA_B<2> ULA_B_2_bF$buf2 BUFX2
XBUFX2_113 vdd gnd ULA_B<2> ULA_B_2_bF$buf1 BUFX2
XBUFX2_114 vdd gnd ULA_B<2> ULA_B_2_bF$buf0 BUFX2
XBUFX2_115 vdd gnd _842_ _842__bF$buf3 BUFX2
XBUFX2_116 vdd gnd _842_ _842__bF$buf2 BUFX2
XBUFX2_117 vdd gnd _842_ _842__bF$buf1 BUFX2
XBUFX2_118 vdd gnd _842_ _842__bF$buf0 BUFX2
XBUFX2_119 vdd gnd _639_ _639__bF$buf3 BUFX2
XBUFX2_120 vdd gnd _639_ _639__bF$buf2 BUFX2
XBUFX2_121 vdd gnd _639_ _639__bF$buf1 BUFX2
XBUFX2_122 vdd gnd _639_ _639__bF$buf0 BUFX2
XBUFX2_123 vdd gnd ULA_B<4> ULA_B_4_bF$buf3 BUFX2
XBUFX2_124 vdd gnd ULA_B<4> ULA_B_4_bF$buf2 BUFX2
XBUFX2_125 vdd gnd ULA_B<4> ULA_B_4_bF$buf1 BUFX2
XBUFX2_126 vdd gnd ULA_B<4> ULA_B_4_bF$buf0 BUFX2
XBUFX2_127 vdd gnd ULA_B<1> ULA_B_1_bF$buf7 BUFX2
XBUFX2_128 vdd gnd ULA_B<1> ULA_B_1_bF$buf6 BUFX2
XBUFX2_129 vdd gnd ULA_B<1> ULA_B_1_bF$buf5 BUFX2
XBUFX2_130 vdd gnd ULA_B<1> ULA_B_1_bF$buf4 BUFX2
XBUFX2_131 vdd gnd ULA_B<1> ULA_B_1_bF$buf3 BUFX2
XBUFX2_132 vdd gnd ULA_B<1> ULA_B_1_bF$buf2 BUFX2
XBUFX2_133 vdd gnd ULA_B<1> ULA_B_1_bF$buf1 BUFX2
XBUFX2_134 vdd gnd ULA_B<1> ULA_B_1_bF$buf0 BUFX2
XBUFX2_135 vdd gnd _277_ _277__bF$buf4 BUFX2
XBUFX2_136 vdd gnd _277_ _277__bF$buf3 BUFX2
XBUFX2_137 vdd gnd _277_ _277__bF$buf2 BUFX2
XBUFX2_138 vdd gnd _277_ _277__bF$buf1 BUFX2
XBUFX2_139 vdd gnd _277_ _277__bF$buf0 BUFX2
XINVX1_1 ULA_ctrl_1_bF$buf3 _30_ vdd gnd INVX1
XNAND3X1_1 ULA_ctrl<2> vdd gnd _30_ ULA_ctrl<3> _41_ NAND3X1
XNAND3X1_2 ULA_ctrl_1_bF$buf3 vdd gnd ULA_ctrl<2> ULA_ctrl<3> _42_ NAND3X1
XAND2X2_1 vdd gnd _41_ _42_ _52_ AND2X2
XINVX1_2 _52_ _63_ vdd gnd INVX1
XINVX2_1 vdd gnd _74_ ULA_ctrl<2> INVX2
XNAND3X1_3 ULA_ctrl<3> vdd gnd _74__bF$buf3 _30_ _94_ NAND3X1
XNAND3X1_4 ULA_ctrl_1_bF$buf3 vdd gnd _74__bF$buf2 ULA_ctrl<3> _105_ NAND3X1
XINVX2_2 vdd gnd _106_ ULA_ctrl<3> INVX2
XNAND2X1_1 vdd _127_ gnd ULA_ctrl<2> _106__bF$buf4 NAND2X1
XNAND3X1_5 _105_ vdd gnd _94_ _127_ _137_ NAND3X1
XOR2X2_1 _138_ _137_ vdd gnd _63_ OR2X2
XINVX2_3 vdd gnd _149_ ULA_ctrl_0_bF$buf4 INVX2
XNAND2X1_2 vdd _169_ gnd ULA_A<0> ULA_B_0_bF$buf1 NAND2X1
XNAND2X1_3 vdd _180_ gnd _149__bF$buf1 _169_ NAND2X1
XNAND3X1_6 ULA_A<0> vdd gnd ULA_ctrl_0_bF$buf3 ULA_B_0_bF$buf1 _181_ NAND3X1
XAOI21X1_1 gnd vdd _180_ _181_ _201_ _138__bF$buf3 AOI21X1
XINVX2_4 vdd gnd _212_ ULA_B_3_bF$buf2 INVX2
XOR2X2_2 _213_ ULA_B_1_bF$buf0 vdd gnd ULA_B_0_bF$buf1 OR2X2
XOR2X2_3 _223_ _213_ vdd gnd ULA_B_2_bF$buf3 OR2X2
XNAND2X1_4 vdd _234_ gnd ULA_ctrl_0_bF$buf0 _223_ NAND2X1
XXOR2X1_1 _244_ vdd _234_ _212__bF$buf4 gnd XOR2X1
XINVX2_5 vdd gnd _255_ ULA_B_2_bF$buf5 INVX2
XNAND2X1_5 vdd _266_ gnd ULA_ctrl_0_bF$buf0 _213_ NAND2X1
XXOR2X1_2 _277_ vdd _266_ _255__bF$buf3 gnd XOR2X1
XMUX2X1_1 ULA_B_0_bF$buf3 vdd gnd _287_ ULA_A<3> ULA_A<2> MUX2X1
XOR2X2_4 _298_ ULA_B_1_bF$buf0 vdd gnd ULA_ctrl_0_bF$buf0 OR2X2
XINVX1_3 _298_ _308_ vdd gnd INVX1
XXNOR2X1_1 ULA_B_0_bF$buf1 ULA_B_1_bF$buf0 gnd vdd _319_ XNOR2X1
XAND2X2_2 vdd gnd _319_ ULA_ctrl_0_bF$buf0 _330_ AND2X2
XOR2X2_5 _340_ _330_ vdd gnd _308_ OR2X2
XMUX2X1_2 ULA_B_0_bF$buf3 vdd gnd _351_ ULA_A<1> ULA_A<0> MUX2X1
XMUX2X1_3 _340__bF$buf3 vdd gnd _362_ _351_ _287_ MUX2X1
XMUX2X1_4 ULA_B_0_bF$buf4 vdd gnd _372_ ULA_A<5> ULA_A<4> MUX2X1
XMUX2X1_5 ULA_B_0_bF$buf4 vdd gnd _383_ ULA_A<7> ULA_A<6> MUX2X1
XMUX2X1_6 _340__bF$buf3 vdd gnd _394_ _372_ _383_ MUX2X1
XMUX2X1_7 _277__bF$buf4 vdd gnd _404_ _394_ _362_ MUX2X1
XOR2X2_6 _415_ _404_ vdd gnd _244__bF$buf0 OR2X2
XOR2X2_7 _426_ _223_ vdd gnd ULA_B_3_bF$buf6 OR2X2
XAND2X2_3 vdd gnd _426_ ULA_ctrl_0_bF$buf3 _436_ AND2X2
XXOR2X1_3 _447_ vdd _436_ ULA_B_4_bF$buf3 gnd XOR2X1
XXOR2X1_4 _458_ vdd _266_ ULA_B_2_bF$buf3 gnd XOR2X1
XXOR2X1_5 _468_ vdd ULA_B_1_bF$buf0 ULA_B_0_bF$buf1 gnd XOR2X1
XOR2X2_8 _479_ _468_ vdd gnd _149__bF$buf2 OR2X2
XAND2X2_4 vdd gnd _479_ _298_ _490_ AND2X2
XMUX2X1_8 ULA_B_0_bF$buf5 vdd gnd _500_ ULA_A<15> ULA_A<14> MUX2X1
XAND2X2_5 vdd gnd _490__bF$buf1 _500_ _511_ AND2X2
XMUX2X1_9 ULA_B_0_bF$buf6 vdd gnd _522_ ULA_A<13> ULA_A<12> MUX2X1
XAND2X2_6 vdd gnd _340__bF$buf1 _522_ _532_ AND2X2
XOR2X2_9 _543_ _511_ vdd gnd _532_ OR2X2
XMUX2X1_10 ULA_B_0_bF$buf6 vdd gnd _554_ ULA_A<11> ULA_A<10> MUX2X1
XAND2X2_7 vdd gnd _490__bF$buf3 _554_ _564_ AND2X2
XMUX2X1_11 ULA_B_0_bF$buf4 vdd gnd _575_ ULA_A<9> ULA_A<8> MUX2X1
XAND2X2_8 vdd gnd _340__bF$buf0 _575_ _585_ AND2X2
XOR2X2_10 _596_ _564_ vdd gnd _585_ OR2X2
XMUX2X1_12 _458__bF$buf2 vdd gnd _607_ _596_ _543_ MUX2X1
XAOI21X1_2 gnd vdd _244__bF$buf0 _607_ _617_ _447__bF$buf1 AOI21X1
XAND2X2_9 vdd gnd _617_ _415_ _638_ AND2X2
XAND2X2_10 vdd gnd _94_ _42_ _639_ AND2X2
XOR2X2_11 _649_ _447__bF$buf0 vdd gnd _639__bF$buf1 OR2X2
XMUX2X1_13 ULA_B_0_bF$buf7 vdd gnd _650_ ULA_A<31> ULA_A<30> MUX2X1
XAND2X2_11 vdd gnd _490__bF$buf4 _650_ _651_ AND2X2
XMUX2X1_14 ULA_B_0_bF$buf7 vdd gnd _652_ ULA_A<29> ULA_A<28> MUX2X1
XAND2X2_12 vdd gnd _340__bF$buf2 _652_ _653_ AND2X2
XOR2X2_12 _654_ _651_ vdd gnd _653_ OR2X2
XAND2X2_13 vdd gnd _654_ _277__bF$buf2 _655_ AND2X2
XMUX2X1_15 ULA_B_0_bF$buf5 vdd gnd _656_ ULA_A<25> ULA_A<24> MUX2X1
XAND2X2_14 vdd gnd _340__bF$buf1 _656_ _657_ AND2X2
XMUX2X1_16 ULA_B_0_bF$buf7 vdd gnd _658_ ULA_A<27> ULA_A<26> MUX2X1
XAND2X2_15 vdd gnd _490__bF$buf1 _658_ _659_ AND2X2
XOR2X2_13 _660_ _659_ vdd gnd _657_ OR2X2
XAND2X2_16 vdd gnd _660_ _458__bF$buf0 _661_ AND2X2
XOR2X2_14 _662_ _661_ vdd gnd _655_ OR2X2
XAND2X2_17 vdd gnd _662_ _244__bF$buf1 _663_ AND2X2
XXOR2X1_6 _664_ vdd _234_ ULA_B_3_bF$buf6 gnd XOR2X1
XMUX2X1_17 ULA_B_0_bF$buf3 vdd gnd _665_ ULA_A<23> ULA_A<22> MUX2X1
XAND2X2_18 vdd gnd _490__bF$buf1 _665_ _666_ AND2X2
XMUX2X1_18 ULA_B_0_bF$buf4 vdd gnd _667_ ULA_A<21> ULA_A<20> MUX2X1
XAND2X2_19 vdd gnd _340__bF$buf1 _667_ _668_ AND2X2
XOR2X2_15 _669_ _666_ vdd gnd _668_ OR2X2
XAND2X2_20 vdd gnd _669_ _277__bF$buf1 _670_ AND2X2
XMUX2X1_19 ULA_B_0_bF$buf6 vdd gnd _671_ ULA_A<19> ULA_A<18> MUX2X1
XAND2X2_21 vdd gnd _490__bF$buf0 _671_ _672_ AND2X2
XMUX2X1_20 ULA_B_0_bF$buf6 vdd gnd _673_ ULA_A<17> ULA_A<16> MUX2X1
XAND2X2_22 vdd gnd _340__bF$buf0 _673_ _674_ AND2X2
XOR2X2_16 _675_ _672_ vdd gnd _674_ OR2X2
XAND2X2_23 vdd gnd _675_ _458__bF$buf2 _676_ AND2X2
XOR2X2_17 _677_ _676_ vdd gnd _670_ OR2X2
XAND2X2_24 vdd gnd _677_ _664__bF$buf2 _678_ AND2X2
XOR2X2_18 _679_ _678_ vdd gnd _639__bF$buf1 OR2X2
XOR2X2_19 _680_ _679_ vdd gnd _663_ OR2X2
XAND2X2_25 vdd gnd _680_ _649_ _681_ AND2X2
XOR2X2_20 _682_ _638_ vdd gnd _681_ OR2X2
XAND2X2_26 vdd gnd _383_ ULA_B_1_bF$buf4 _683_ AND2X2
XINVX2_6 vdd gnd _684_ ULA_B_1_bF$buf6 INVX2
XAND2X2_27 vdd gnd _372_ _684__bF$buf4 _685_ AND2X2
XOR2X2_21 _686_ _685_ vdd gnd _683_ OR2X2
XAND2X2_28 vdd gnd _686_ ULA_B_2_bF$buf2 _687_ AND2X2
XAND2X2_29 vdd gnd _351_ _684__bF$buf4 _688_ AND2X2
XAND2X2_30 vdd gnd _287_ ULA_B_1_bF$buf4 _689_ AND2X2
XOR2X2_22 _690_ _689_ vdd gnd _688_ OR2X2
XAND2X2_31 vdd gnd _690_ _255__bF$buf3 _691_ AND2X2
XOR2X2_23 _692_ _691_ vdd gnd _687_ OR2X2
XAND2X2_32 vdd gnd _692_ _212__bF$buf1 _693_ AND2X2
XAND2X2_33 vdd gnd _500_ ULA_B_1_bF$buf6 _694_ AND2X2
XAND2X2_34 vdd gnd _522_ _684__bF$buf2 _695_ AND2X2
XOR2X2_24 _696_ _695_ vdd gnd _694_ OR2X2
XAND2X2_35 vdd gnd _696_ ULA_B_2_bF$buf5 _697_ AND2X2
XAND2X2_36 vdd gnd _554_ ULA_B_1_bF$buf4 _698_ AND2X2
XAND2X2_37 vdd gnd _575_ _684__bF$buf2 _699_ AND2X2
XOR2X2_25 _700_ _699_ vdd gnd _698_ OR2X2
XAND2X2_38 vdd gnd _700_ _255__bF$buf3 _701_ AND2X2
XOR2X2_26 _702_ _701_ vdd gnd _697_ OR2X2
XAND2X2_39 vdd gnd _702_ ULA_B_3_bF$buf3 _703_ AND2X2
XOR2X2_27 _704_ _703_ vdd gnd _693_ OR2X2
XOR2X2_28 _705_ _105_ vdd gnd ULA_B_4_bF$buf2 OR2X2
XOR2X2_29 _706_ _704_ vdd gnd _705__bF$buf3 OR2X2
XAND2X2_40 vdd gnd _652_ _684__bF$buf1 _707_ AND2X2
XAND2X2_41 vdd gnd _650_ ULA_B_1_bF$buf5 _708_ AND2X2
XOR2X2_30 _709_ _708_ vdd gnd _707_ OR2X2
XAND2X2_42 vdd gnd _709_ ULA_B_2_bF$buf6 _710_ AND2X2
XAND2X2_43 vdd gnd _658_ ULA_B_1_bF$buf2 _711_ AND2X2
XAND2X2_44 vdd gnd _656_ _684__bF$buf0 _712_ AND2X2
XOR2X2_31 _713_ _712_ vdd gnd _711_ OR2X2
XAND2X2_45 vdd gnd _713_ _255__bF$buf5 _714_ AND2X2
XOR2X2_32 _715_ _714_ vdd gnd _710_ OR2X2
XAND2X2_46 vdd gnd _715_ ULA_B_3_bF$buf3 _716_ AND2X2
XAND2X2_47 vdd gnd _665_ ULA_B_1_bF$buf4 _717_ AND2X2
XAND2X2_48 vdd gnd _667_ _684__bF$buf2 _718_ AND2X2
XOR2X2_33 _719_ _718_ vdd gnd _717_ OR2X2
XAND2X2_49 vdd gnd _719_ ULA_B_2_bF$buf4 _720_ AND2X2
XAND2X2_50 vdd gnd _671_ ULA_B_1_bF$buf6 _721_ AND2X2
XAND2X2_51 vdd gnd _673_ _684__bF$buf2 _722_ AND2X2
XOR2X2_34 _723_ _722_ vdd gnd _721_ OR2X2
XAND2X2_52 vdd gnd _723_ _255__bF$buf2 _724_ AND2X2
XOR2X2_35 _725_ _724_ vdd gnd _720_ OR2X2
XAND2X2_53 vdd gnd _725_ _212__bF$buf2 _726_ AND2X2
XOR2X2_36 _727_ _726_ vdd gnd _716_ OR2X2
XINVX1_4 ULA_B_4_bF$buf1 _728_ vdd gnd INVX1
XOR2X2_37 _729_ _105_ vdd gnd _728_ OR2X2
XOR2X2_38 _730_ _727_ vdd gnd _729_ OR2X2
XINVX1_5 _426_ _731_ vdd gnd INVX1
XNOR2X1_1 vdd ULA_B_4_bF$buf3 gnd _732_ _41_ NOR2X1
XNAND3X1_7 ULA_A<0> vdd gnd _732_ _731_ _733_ NAND3X1
XNAND3X1_8 ULA_ctrl<2> vdd gnd _106__bF$buf3 ULA_ctrl_1_bF$buf1 _734_ NAND3X1
XNAND3X1_9 ULA_ctrl<2> vdd gnd _30_ _106__bF$buf3 _735_ NAND3X1
XNAND2X1_6 vdd _736_ gnd _734_ _735_ NAND2X1
XINVX1_6 ULA_A<0> _737_ vdd gnd INVX1
XINVX1_7 ULA_B_0_bF$buf1 _738_ vdd gnd INVX1
XNAND2X1_7 vdd _739_ gnd _737_ _738_ NAND2X1
XNAND3X1_10 ULA_B_0_bF$buf1 vdd gnd ULA_A<0> ULA_ctrl_1_bF$buf5 _740_ NAND3X1
XNAND3X1_11 _739_ vdd gnd _736_ _740_ _741_ NAND3X1
XAND2X2_54 vdd gnd _741_ _138__bF$buf3 _742_ AND2X2
XAND2X2_55 vdd gnd _742_ _733_ _743_ AND2X2
XAND2X2_56 vdd gnd _743_ _730_ _744_ AND2X2
XAND2X2_57 vdd gnd _744_ _706_ _745_ AND2X2
XAND2X2_58 vdd gnd _682_ _745_ _746_ AND2X2
XOR2X2_39 _747_ _746_ vdd gnd _201_ OR2X2
XINVX1_8 _747_ _0_<0> vdd gnd INVX1
XNAND2X1_8 vdd _748_ gnd ULA_A<1> ULA_B_1_bF$buf0 NAND2X1
XXOR2X1_7 _749_ vdd _748_ _149__bF$buf2 gnd XOR2X1
XNOR2X1_2 vdd _749_ gnd _750_ _138__bF$buf4 NOR2X1
XNAND3X1_12 ULA_B_1_bF$buf0 vdd gnd _738_ ULA_A<31> _751_ NAND3X1
XMUX2X1_21 ULA_B_0_bF$buf7 vdd gnd _752_ ULA_A<30> ULA_A<29> MUX2X1
XOR2X2_40 _753_ _490__bF$buf4 vdd gnd _752_ OR2X2
XAND2X2_59 vdd gnd _753_ _751_ _754_ AND2X2
XAND2X2_60 vdd gnd _754_ _277__bF$buf2 _755_ AND2X2
XMUX2X1_22 ULA_B_0_bF$buf7 vdd gnd _756_ ULA_A<28> ULA_A<27> MUX2X1
XAND2X2_61 vdd gnd _490__bF$buf4 _756_ _757_ AND2X2
XMUX2X1_23 ULA_B_0_bF$buf7 vdd gnd _758_ ULA_A<26> ULA_A<25> MUX2X1
XAND2X2_62 vdd gnd _340__bF$buf2 _758_ _759_ AND2X2
XOR2X2_41 _760_ _757_ vdd gnd _759_ OR2X2
XAND2X2_63 vdd gnd _760_ _458__bF$buf0 _761_ AND2X2
XOR2X2_42 _762_ _761_ vdd gnd _755_ OR2X2
XAND2X2_64 vdd gnd _762_ _244__bF$buf2 _763_ AND2X2
XMUX2X1_24 ULA_B_0_bF$buf5 vdd gnd _764_ ULA_A<22> ULA_A<21> MUX2X1
XMUX2X1_25 ULA_B_0_bF$buf3 vdd gnd _765_ ULA_A<24> ULA_A<23> MUX2X1
XMUX2X1_26 _340__bF$buf4 vdd gnd _766_ _764_ _765_ MUX2X1
XMUX2X1_27 ULA_B_0_bF$buf3 vdd gnd _767_ ULA_A<18> ULA_A<17> MUX2X1
XMUX2X1_28 ULA_B_0_bF$buf3 vdd gnd _768_ ULA_A<20> ULA_A<19> MUX2X1
XMUX2X1_29 _340__bF$buf4 vdd gnd _769_ _767_ _768_ MUX2X1
XMUX2X1_30 _458__bF$buf3 vdd gnd _770_ _769_ _766_ MUX2X1
XAND2X2_65 vdd gnd _770_ _664__bF$buf0 _771_ AND2X2
XOR2X2_43 _772_ _771_ vdd gnd _763_ OR2X2
XAND2X2_66 vdd gnd _772_ _447__bF$buf0 _773_ AND2X2
XINVX1_9 _447__bF$buf3 _774_ vdd gnd INVX1
XMUX2X1_31 ULA_B_0_bF$buf4 vdd gnd _775_ ULA_A<16> ULA_A<15> MUX2X1
XAND2X2_67 vdd gnd _490__bF$buf2 _775_ _776_ AND2X2
XMUX2X1_32 ULA_B_0_bF$buf4 vdd gnd _777_ ULA_A<14> ULA_A<13> MUX2X1
XAND2X2_68 vdd gnd _340__bF$buf4 _777_ _778_ AND2X2
XOR2X2_44 _779_ _776_ vdd gnd _778_ OR2X2
XAND2X2_69 vdd gnd _779_ _277__bF$buf4 _780_ AND2X2
XMUX2X1_33 ULA_B_0_bF$buf4 vdd gnd _781_ ULA_A<12> ULA_A<11> MUX2X1
XAND2X2_70 vdd gnd _490__bF$buf3 _781_ _782_ AND2X2
XMUX2X1_34 ULA_B_0_bF$buf4 vdd gnd _783_ ULA_A<10> ULA_A<9> MUX2X1
XAND2X2_71 vdd gnd _340__bF$buf5 _783_ _784_ AND2X2
XOR2X2_45 _785_ _782_ vdd gnd _784_ OR2X2
XAND2X2_72 vdd gnd _785_ _458__bF$buf1 _786_ AND2X2
XOR2X2_46 _787_ _786_ vdd gnd _780_ OR2X2
XAND2X2_73 vdd gnd _787_ _244__bF$buf3 _788_ AND2X2
XMUX2X1_35 ULA_B_0_bF$buf3 vdd gnd _789_ ULA_A<4> ULA_A<3> MUX2X1
XMUX2X1_36 ULA_B_0_bF$buf3 vdd gnd _790_ ULA_A<2> ULA_A<1> MUX2X1
XMUX2X1_37 _340__bF$buf3 vdd gnd _791_ _790_ _789_ MUX2X1
XMUX2X1_38 ULA_B_0_bF$buf3 vdd gnd _792_ ULA_A<6> ULA_A<5> MUX2X1
XMUX2X1_39 ULA_B_0_bF$buf4 vdd gnd _793_ ULA_A<8> ULA_A<7> MUX2X1
XMUX2X1_40 _340__bF$buf5 vdd gnd _794_ _792_ _793_ MUX2X1
XMUX2X1_41 _277__bF$buf4 vdd gnd _795_ _794_ _791_ MUX2X1
XAND2X2_74 vdd gnd _795_ _664__bF$buf4 _796_ AND2X2
XOR2X2_47 _797_ _796_ vdd gnd _788_ OR2X2
XAND2X2_75 vdd gnd _797_ _774_ _798_ AND2X2
XOR2X2_48 _799_ _798_ vdd gnd _773_ OR2X2
XOR2X2_49 _800_ _799_ vdd gnd _639__bF$buf3 OR2X2
XMUX2X1_42 _684__bF$buf4 vdd gnd _801_ _790_ _789_ MUX2X1
XMUX2X1_43 ULA_B_1_bF$buf7 vdd gnd _802_ _793_ _792_ MUX2X1
XMUX2X1_44 ULA_B_2_bF$buf3 vdd gnd _803_ _802_ _801_ MUX2X1
XAND2X2_76 vdd gnd _803_ _212__bF$buf4 _804_ AND2X2
XAND2X2_77 vdd gnd _775_ ULA_B_1_bF$buf7 _805_ AND2X2
XAND2X2_78 vdd gnd _777_ _684__bF$buf4 _806_ AND2X2
XOR2X2_50 _807_ _806_ vdd gnd _805_ OR2X2
XAND2X2_79 vdd gnd _807_ ULA_B_2_bF$buf2 _808_ AND2X2
XAND2X2_80 vdd gnd _781_ ULA_B_1_bF$buf7 _809_ AND2X2
XAND2X2_81 vdd gnd _783_ _684__bF$buf4 _810_ AND2X2
XOR2X2_51 _811_ _810_ vdd gnd _809_ OR2X2
XAND2X2_82 vdd gnd _811_ _255__bF$buf0 _812_ AND2X2
XOR2X2_52 _813_ _812_ vdd gnd _808_ OR2X2
XAND2X2_83 vdd gnd _813_ ULA_B_3_bF$buf6 _814_ AND2X2
XOR2X2_53 _815_ _804_ vdd gnd _814_ OR2X2
XOR2X2_54 _816_ _815_ vdd gnd _705__bF$buf0 OR2X2
XAND2X2_84 vdd gnd _752_ _684__bF$buf0 _817_ AND2X2
XINVX1_10 ULA_A<31> _818_ vdd gnd INVX1
XOR2X2_55 _819_ _818_ vdd gnd ULA_B_0_bF$buf1 OR2X2
XAND2X2_85 vdd gnd _819_ ULA_B_1_bF$buf0 _820_ AND2X2
XOR2X2_56 _821_ _820_ vdd gnd _817_ OR2X2
XAND2X2_86 vdd gnd _756_ ULA_B_1_bF$buf2 _822_ AND2X2
XAND2X2_87 vdd gnd _758_ _684__bF$buf0 _823_ AND2X2
XOR2X2_57 _824_ _823_ vdd gnd _822_ OR2X2
XMUX2X1_45 ULA_B_2_bF$buf3 vdd gnd _825_ _821_ _824_ MUX2X1
XAND2X2_88 vdd gnd _765_ ULA_B_1_bF$buf0 _826_ AND2X2
XAND2X2_89 vdd gnd _764_ _684__bF$buf0 _827_ AND2X2
XOR2X2_58 _828_ _827_ vdd gnd _826_ OR2X2
XAND2X2_90 vdd gnd _768_ ULA_B_1_bF$buf7 _829_ AND2X2
XAND2X2_91 vdd gnd _767_ _684__bF$buf0 _830_ AND2X2
XOR2X2_59 _831_ _830_ vdd gnd _829_ OR2X2
XMUX2X1_46 _255__bF$buf0 vdd gnd _832_ _831_ _828_ MUX2X1
XMUX2X1_47 ULA_B_3_bF$buf6 vdd gnd _833_ _825_ _832_ MUX2X1
XOR2X2_60 _834_ _833_ vdd gnd _729_ OR2X2
XNAND3X1_13 ULA_A<1> vdd gnd ULA_ctrl_1_bF$buf4 ULA_B_1_bF$buf2 _835_ NAND3X1
XOAI21X1_1 gnd vdd ULA_A<1> ULA_B_1_bF$buf2 _836_ _835_ OAI21X1
XNAND2X1_9 vdd _837_ gnd ULA_ctrl<2> _836_ NAND2X1
XMUX2X1_48 ULA_B_0_bF$buf7 vdd gnd _838_ ULA_A<0> ULA_A<1> MUX2X1
XOR2X2_61 _839_ _838_ vdd gnd ULA_B_1_bF$buf5 OR2X2
XOR2X2_62 _840_ _839_ vdd gnd ULA_B_2_bF$buf0 OR2X2
XNOR2X1_3 vdd ULA_B_3_bF$buf0 gnd _841_ _840_ NOR2X1
XOR2X2_63 _842_ _52_ vdd gnd ULA_B_4_bF$buf2 OR2X2
XINVX1_11 _842__bF$buf0 _843_ vdd gnd INVX1
XAOI22X1_1 gnd vdd _841_ _843_ _844_ _106__bF$buf0 _837_ AOI22X1
XAND2X2_92 vdd gnd _834_ _844_ _845_ AND2X2
XAND2X2_93 vdd gnd _845_ _816_ _846_ AND2X2
XAND2X2_94 vdd gnd _800_ _846_ _847_ AND2X2
XOR2X2_64 _848_ _847_ vdd gnd _750_ OR2X2
XINVX1_12 _848_ _0_<1> vdd gnd INVX1
XNAND2X1_10 vdd _849_ gnd ULA_A<2> ULA_B_2_bF$buf3 NAND2X1
XNAND2X1_11 vdd _850_ gnd _149__bF$buf2 _849_ NAND2X1
XNAND3X1_14 ULA_A<2> vdd gnd ULA_ctrl_0_bF$buf0 ULA_B_2_bF$buf3 _851_ NAND3X1
XAOI21X1_3 gnd vdd _850_ _851_ _852_ _138__bF$buf4 AOI21X1
XOR2X2_65 _853_ _490__bF$buf4 vdd gnd _650_ OR2X2
XAND2X2_95 vdd gnd _277__bF$buf2 _853_ _854_ AND2X2
XAND2X2_96 vdd gnd _340__bF$buf2 _658_ _855_ AND2X2
XAND2X2_97 vdd gnd _490__bF$buf4 _652_ _856_ AND2X2
XOR2X2_66 _857_ _856_ vdd gnd _855_ OR2X2
XAND2X2_98 vdd gnd _857_ _458__bF$buf0 _858_ AND2X2
XOR2X2_67 _859_ _858_ vdd gnd _854_ OR2X2
XAND2X2_99 vdd gnd _859_ _244__bF$buf2 _860_ AND2X2
XAND2X2_100 vdd gnd _490__bF$buf1 _656_ _861_ AND2X2
XAND2X2_101 vdd gnd _340__bF$buf1 _665_ _862_ AND2X2
XOR2X2_68 _863_ _861_ vdd gnd _862_ OR2X2
XAND2X2_102 vdd gnd _863_ _277__bF$buf1 _864_ AND2X2
XAND2X2_103 vdd gnd _490__bF$buf2 _667_ _865_ AND2X2
XAND2X2_104 vdd gnd _340__bF$buf1 _671_ _866_ AND2X2
XOR2X2_69 _867_ _865_ vdd gnd _866_ OR2X2
XAND2X2_105 vdd gnd _867_ _458__bF$buf2 _868_ AND2X2
XOR2X2_70 _869_ _868_ vdd gnd _864_ OR2X2
XAND2X2_106 vdd gnd _869_ _664__bF$buf0 _870_ AND2X2
XOR2X2_71 _871_ _870_ vdd gnd _860_ OR2X2
XAND2X2_107 vdd gnd _871_ _447__bF$buf3 _872_ AND2X2
XAND2X2_108 vdd gnd _490__bF$buf0 _673_ _873_ AND2X2
XAND2X2_109 vdd gnd _340__bF$buf3 _500_ _874_ AND2X2
XOR2X2_72 _875_ _873_ vdd gnd _874_ OR2X2
XAND2X2_110 vdd gnd _875_ _277__bF$buf3 _876_ AND2X2
XAND2X2_111 vdd gnd _490__bF$buf0 _522_ _877_ AND2X2
XAND2X2_112 vdd gnd _340__bF$buf0 _554_ _878_ AND2X2
XOR2X2_73 _879_ _877_ vdd gnd _878_ OR2X2
XAND2X2_113 vdd gnd _879_ _458__bF$buf1 _880_ AND2X2
XOR2X2_74 _881_ _880_ vdd gnd _876_ OR2X2
XAND2X2_114 vdd gnd _881_ _244__bF$buf3 _882_ AND2X2
XAND2X2_115 vdd gnd _490__bF$buf0 _575_ _883_ AND2X2
XAND2X2_116 vdd gnd _340__bF$buf0 _383_ _884_ AND2X2
XOR2X2_75 _885_ _883_ vdd gnd _884_ OR2X2
XAND2X2_117 vdd gnd _885_ _277__bF$buf3 _886_ AND2X2
XAND2X2_118 vdd gnd _490__bF$buf0 _372_ _887_ AND2X2
XAND2X2_119 vdd gnd _340__bF$buf3 _287_ _888_ AND2X2
XOR2X2_76 _889_ _887_ vdd gnd _888_ OR2X2
XAND2X2_120 vdd gnd _889_ _458__bF$buf1 _890_ AND2X2
XOR2X2_77 _891_ _890_ vdd gnd _886_ OR2X2
XAND2X2_121 vdd gnd _891_ _664__bF$buf4 _892_ AND2X2
XOR2X2_78 _893_ _892_ vdd gnd _882_ OR2X2
XAND2X2_122 vdd gnd _893_ _774_ _894_ AND2X2
XOR2X2_79 _895_ _894_ vdd gnd _872_ OR2X2
XOR2X2_80 _896_ _895_ vdd gnd _639__bF$buf3 OR2X2
XAND2X2_123 vdd gnd _575_ ULA_B_1_bF$buf4 _897_ AND2X2
XAND2X2_124 vdd gnd _383_ _684__bF$buf2 _898_ AND2X2
XOR2X2_81 _899_ _898_ vdd gnd _897_ OR2X2
XAND2X2_125 vdd gnd _899_ ULA_B_2_bF$buf5 _900_ AND2X2
XAND2X2_126 vdd gnd _287_ _684__bF$buf4 _901_ AND2X2
XAND2X2_127 vdd gnd _372_ ULA_B_1_bF$buf4 _902_ AND2X2
XOR2X2_82 _903_ _902_ vdd gnd _901_ OR2X2
XAND2X2_128 vdd gnd _903_ _255__bF$buf3 _904_ AND2X2
XOR2X2_83 _905_ _904_ vdd gnd _900_ OR2X2
XAND2X2_129 vdd gnd _905_ _212__bF$buf1 _906_ AND2X2
XAND2X2_130 vdd gnd _673_ ULA_B_1_bF$buf6 _907_ AND2X2
XAND2X2_131 vdd gnd _500_ _684__bF$buf2 _908_ AND2X2
XOR2X2_84 _909_ _908_ vdd gnd _907_ OR2X2
XAND2X2_132 vdd gnd _909_ ULA_B_2_bF$buf5 _910_ AND2X2
XAND2X2_133 vdd gnd _522_ ULA_B_1_bF$buf4 _911_ AND2X2
XAND2X2_134 vdd gnd _554_ _684__bF$buf2 _912_ AND2X2
XOR2X2_85 _913_ _912_ vdd gnd _911_ OR2X2
XAND2X2_135 vdd gnd _913_ _255__bF$buf2 _914_ AND2X2
XOR2X2_86 _915_ _914_ vdd gnd _910_ OR2X2
XAND2X2_136 vdd gnd _915_ ULA_B_3_bF$buf0 _916_ AND2X2
XOR2X2_87 _917_ _916_ vdd gnd _906_ OR2X2
XOR2X2_88 _918_ _917_ vdd gnd _705__bF$buf1 OR2X2
XOR2X2_89 _919_ _650_ vdd gnd ULA_B_1_bF$buf5 OR2X2
XAND2X2_137 vdd gnd _919_ ULA_B_2_bF$buf6 _920_ AND2X2
XAND2X2_138 vdd gnd _652_ ULA_B_1_bF$buf2 _921_ AND2X2
XAND2X2_139 vdd gnd _658_ _684__bF$buf0 _922_ AND2X2
XOR2X2_90 _923_ _922_ vdd gnd _921_ OR2X2
XAND2X2_140 vdd gnd _923_ _255__bF$buf5 _924_ AND2X2
XOR2X2_91 _925_ _924_ vdd gnd _920_ OR2X2
XAND2X2_141 vdd gnd _925_ ULA_B_3_bF$buf7 _926_ AND2X2
XAND2X2_142 vdd gnd _665_ _684__bF$buf2 _927_ AND2X2
XAND2X2_143 vdd gnd _656_ ULA_B_1_bF$buf4 _928_ AND2X2
XOR2X2_92 _929_ _928_ vdd gnd _927_ OR2X2
XAND2X2_144 vdd gnd _929_ ULA_B_2_bF$buf5 _930_ AND2X2
XAND2X2_145 vdd gnd _667_ ULA_B_1_bF$buf6 _931_ AND2X2
XAND2X2_146 vdd gnd _671_ _684__bF$buf2 _932_ AND2X2
XOR2X2_93 _933_ _932_ vdd gnd _931_ OR2X2
XAND2X2_147 vdd gnd _933_ _255__bF$buf2 _934_ AND2X2
XOR2X2_94 _935_ _934_ vdd gnd _930_ OR2X2
XAND2X2_148 vdd gnd _935_ _212__bF$buf2 _936_ AND2X2
XOR2X2_95 _937_ _936_ vdd gnd _926_ OR2X2
XOR2X2_96 _938_ _937_ vdd gnd _729_ OR2X2
XOR2X2_97 _939_ ULA_B_2_bF$buf4 vdd gnd ULA_A<2> OR2X2
XNAND3X1_15 ULA_A<2> vdd gnd ULA_ctrl_1_bF$buf4 ULA_B_2_bF$buf4 _940_ NAND3X1
XAND2X2_149 vdd gnd _940_ _939_ _941_ AND2X2
XOAI21X1_2 gnd vdd _74__bF$buf2 _941_ _942_ _106__bF$buf0 OAI21X1
XOR2X2_98 _943_ _737_ vdd gnd ULA_B_0_bF$buf1 OR2X2
XAND2X2_150 vdd gnd _943_ ULA_B_1_bF$buf2 _944_ AND2X2
XMUX2X1_49 ULA_B_0_bF$buf5 vdd gnd _945_ ULA_A<1> ULA_A<2> MUX2X1
XAND2X2_151 vdd gnd _945_ _684__bF$buf1 _946_ AND2X2
XOR2X2_99 _947_ _944_ vdd gnd _946_ OR2X2
XOR2X2_100 _948_ _947_ vdd gnd ULA_B_2_bF$buf6 OR2X2
XOR2X2_101 _949_ _948_ vdd gnd ULA_B_3_bF$buf0 OR2X2
XOR2X2_102 _950_ _949_ vdd gnd _842__bF$buf0 OR2X2
XAND2X2_152 vdd gnd _950_ _942_ _951_ AND2X2
XAND2X2_153 vdd gnd _938_ _951_ _952_ AND2X2
XAND2X2_154 vdd gnd _952_ _918_ _953_ AND2X2
XAND2X2_155 vdd gnd _896_ _953_ _954_ AND2X2
XOR2X2_103 _955_ _954_ vdd gnd _852_ OR2X2
XINVX1_13 _955_ _0_<2> vdd gnd INVX1
XAND2X2_156 vdd gnd ULA_A<3> ULA_B_3_bF$buf6 _956_ AND2X2
XOR2X2_104 _957_ _956_ vdd gnd ULA_ctrl_0_bF$buf1 OR2X2
XNAND2X1_12 vdd _958_ gnd ULA_ctrl_0_bF$buf1 _956_ NAND2X1
XAOI21X1_4 gnd vdd _957_ _958_ _959_ _138__bF$buf4 AOI21X1
XNOR2X1_4 vdd ULA_B_1_bF$buf2 gnd _960_ ULA_B_0_bF$buf7 NOR2X1
XNAND3X1_16 ULA_B_2_bF$buf4 vdd gnd _960_ ULA_A<31> _961_ NAND3X1
XAND2X2_157 vdd gnd _490__bF$buf4 _752_ _962_ AND2X2
XAND2X2_158 vdd gnd _340__bF$buf2 _756_ _963_ AND2X2
XOR2X2_105 _964_ _962_ vdd gnd _963_ OR2X2
XOR2X2_106 _965_ _964_ vdd gnd _277__bF$buf0 OR2X2
XAND2X2_159 vdd gnd _965_ _961_ _966_ AND2X2
XAND2X2_160 vdd gnd _966_ _244__bF$buf1 _967_ AND2X2
XAND2X2_161 vdd gnd _490__bF$buf1 _758_ _968_ AND2X2
XAND2X2_162 vdd gnd _340__bF$buf1 _765_ _969_ AND2X2
XOR2X2_107 _970_ _968_ vdd gnd _969_ OR2X2
XAND2X2_163 vdd gnd _970_ _277__bF$buf1 _971_ AND2X2
XAND2X2_164 vdd gnd _490__bF$buf2 _764_ _972_ AND2X2
XAND2X2_165 vdd gnd _340__bF$buf4 _768_ _973_ AND2X2
XOR2X2_108 _974_ _972_ vdd gnd _973_ OR2X2
XAND2X2_166 vdd gnd _974_ _458__bF$buf3 _975_ AND2X2
XOR2X2_109 _976_ _975_ vdd gnd _971_ OR2X2
XAND2X2_167 vdd gnd _976_ _664__bF$buf1 _977_ AND2X2
XOR2X2_110 _978_ _977_ vdd gnd _967_ OR2X2
XAND2X2_168 vdd gnd _978_ _447__bF$buf2 _979_ AND2X2
XMUX2X1_50 _340__bF$buf4 vdd gnd _980_ _775_ _767_ MUX2X1
XMUX2X1_51 _340__bF$buf5 vdd gnd _981_ _781_ _777_ MUX2X1
XMUX2X1_52 _458__bF$buf3 vdd gnd _982_ _981_ _980_ MUX2X1
XAND2X2_169 vdd gnd _982_ _244__bF$buf0 _983_ AND2X2
XMUX2X1_53 _340__bF$buf3 vdd gnd _984_ _789_ _792_ MUX2X1
XMUX2X1_54 _340__bF$buf5 vdd gnd _985_ _793_ _783_ MUX2X1
XMUX2X1_55 _277__bF$buf1 vdd gnd _986_ _985_ _984_ MUX2X1
XAND2X2_170 vdd gnd _986_ _664__bF$buf3 _987_ AND2X2
XOR2X2_111 _988_ _987_ vdd gnd _983_ OR2X2
XAND2X2_171 vdd gnd _988_ _774_ _989_ AND2X2
XOR2X2_112 _990_ _989_ vdd gnd _979_ OR2X2
XOR2X2_113 _991_ _990_ vdd gnd _639__bF$buf1 OR2X2
XMUX2X1_56 ULA_B_1_bF$buf7 vdd gnd _992_ _767_ _775_ MUX2X1
XMUX2X1_57 ULA_B_1_bF$buf7 vdd gnd _993_ _777_ _781_ MUX2X1
XMUX2X1_58 _255__bF$buf3 vdd gnd _994_ _993_ _992_ MUX2X1
XAND2X2_172 vdd gnd _994_ ULA_B_3_bF$buf6 _995_ AND2X2
XMUX2X1_59 ULA_B_1_bF$buf7 vdd gnd _996_ _792_ _789_ MUX2X1
XMUX2X1_60 ULA_B_1_bF$buf7 vdd gnd _997_ _783_ _793_ MUX2X1
XMUX2X1_61 ULA_B_2_bF$buf3 vdd gnd _998_ _997_ _996_ MUX2X1
XAND2X2_173 vdd gnd _998_ _212__bF$buf4 _999_ AND2X2
XOR2X2_114 _1000_ _999_ vdd gnd _705__bF$buf0 OR2X2
XOR2X2_115 _1001_ _1000_ vdd gnd _995_ OR2X2
XAND2X2_174 vdd gnd _752_ ULA_B_1_bF$buf2 _1002_ AND2X2
XAND2X2_175 vdd gnd _756_ _684__bF$buf0 _1003_ AND2X2
XOR2X2_116 _1004_ _1003_ vdd gnd _1002_ OR2X2
XOR2X2_117 _1005_ _1004_ vdd gnd ULA_B_2_bF$buf4 OR2X2
XAND2X2_176 vdd gnd _1005_ _961_ _1006_ AND2X2
XAND2X2_177 vdd gnd _1006_ ULA_B_3_bF$buf5 _1007_ AND2X2
XAND2X2_178 vdd gnd _758_ ULA_B_1_bF$buf0 _1008_ AND2X2
XAND2X2_179 vdd gnd _765_ _684__bF$buf0 _1009_ AND2X2
XOR2X2_118 _1010_ _1009_ vdd gnd _1008_ OR2X2
XAND2X2_180 vdd gnd _1010_ ULA_B_2_bF$buf2 _1011_ AND2X2
XAND2X2_181 vdd gnd _764_ ULA_B_1_bF$buf2 _1012_ AND2X2
XAND2X2_182 vdd gnd _768_ _684__bF$buf0 _1013_ AND2X2
XOR2X2_119 _1014_ _1013_ vdd gnd _1012_ OR2X2
XAND2X2_183 vdd gnd _1014_ _255__bF$buf0 _1015_ AND2X2