* XSpice netlist created from SPICE and liberty sources by spi2xspice.py
*SPICE netlist created from BLIF module NRISC_ULA by blif2BSpice
.subckt NRISC_ULA a_vdd a_gnd a_ULA_A_0_ a_ULA_A_1_ a_ULA_A_2_ a_ULA_A_3_ a_ULA_A_4_ a_ULA_A_5_ a_ULA_A_6_ a_ULA_A_7_ a_ULA_A_8_ a_ULA_A_9_ a_ULA_A_10_ a_ULA_A_11_ a_ULA_A_12_ a_ULA_A_13_ a_ULA_A_14_ a_ULA_A_15_ a_ULA_A_16_ a_ULA_A_17_ a_ULA_A_18_ a_ULA_A_19_ a_ULA_A_20_ a_ULA_A_21_ a_ULA_A_22_ a_ULA_A_23_ a_ULA_A_24_ a_ULA_A_25_ a_ULA_A_26_ a_ULA_A_27_ a_ULA_A_28_ a_ULA_A_29_ a_ULA_A_30_ a_ULA_A_31_ a_ULA_B_0_ a_ULA_B_1_ a_ULA_B_2_ a_ULA_B_3_ a_ULA_B_4_ a_ULA_B_5_ a_ULA_B_6_ a_ULA_B_7_ a_ULA_B_8_ a_ULA_B_9_ a_ULA_B_10_ a_ULA_B_11_ a_ULA_B_12_ a_ULA_B_13_ a_ULA_B_14_ a_ULA_B_15_ a_ULA_B_16_ a_ULA_B_17_ a_ULA_B_18_ a_ULA_B_19_ a_ULA_B_20_ a_ULA_B_21_ a_ULA_B_22_ a_ULA_B_23_ a_ULA_B_24_ a_ULA_B_25_ a_ULA_B_26_ a_ULA_B_27_ a_ULA_B_28_ a_ULA_B_29_ a_ULA_B_30_ a_ULA_B_31_ a_ULA_ctrl_0_ a_ULA_ctrl_1_ a_ULA_ctrl_2_ a_ULA_ctrl_3_ a_clk a_ULA_OUT_0_ a_ULA_OUT_1_ a_ULA_OUT_2_ a_ULA_OUT_3_ a_ULA_OUT_4_ a_ULA_OUT_5_ a_ULA_OUT_6_ a_ULA_OUT_7_ a_ULA_OUT_8_ a_ULA_OUT_9_ a_ULA_OUT_10_ a_ULA_OUT_11_ a_ULA_OUT_12_ a_ULA_OUT_13_ a_ULA_OUT_14_ a_ULA_OUT_15_ a_ULA_OUT_16_ a_ULA_OUT_17_ a_ULA_OUT_18_ a_ULA_OUT_19_ a_ULA_OUT_20_ a_ULA_OUT_21_ a_ULA_OUT_22_ a_ULA_OUT_23_ a_ULA_OUT_24_ a_ULA_OUT_25_ a_ULA_OUT_26_ a_ULA_OUT_27_ a_ULA_OUT_28_ a_ULA_OUT_29_ a_ULA_OUT_30_ a_ULA_OUT_31_ a_ULA_flags_0_ a_ULA_flags_1_ a_ULA_flags_2_
ABUFX2_1 [ULA_ctrl_1_] ULA_ctrl_1_bF$buf5 d_lut_BUFX2
ABUFX2_2 [ULA_ctrl_1_] ULA_ctrl_1_bF$buf4 d_lut_BUFX2
ABUFX2_3 [ULA_ctrl_1_] ULA_ctrl_1_bF$buf3 d_lut_BUFX2
ABUFX2_4 [ULA_ctrl_1_] ULA_ctrl_1_bF$buf2 d_lut_BUFX2
ABUFX2_5 [ULA_ctrl_1_] ULA_ctrl_1_bF$buf1 d_lut_BUFX2
ABUFX2_6 [ULA_ctrl_1_] ULA_ctrl_1_bF$buf0 d_lut_BUFX2
ABUFX2_7 [_447_] _447__bF$buf3 d_lut_BUFX2
ABUFX2_8 [_447_] _447__bF$buf2 d_lut_BUFX2
ABUFX2_9 [_447_] _447__bF$buf1 d_lut_BUFX2
ABUFX2_10 [_447_] _447__bF$buf0 d_lut_BUFX2
ABUFX2_11 [_212_] _212__bF$buf5 d_lut_BUFX2
ABUFX2_12 [_212_] _212__bF$buf4 d_lut_BUFX2
ABUFX2_13 [_212_] _212__bF$buf3 d_lut_BUFX2
ABUFX2_14 [_212_] _212__bF$buf2 d_lut_BUFX2
ABUFX2_15 [_212_] _212__bF$buf1 d_lut_BUFX2
ABUFX2_16 [_212_] _212__bF$buf0 d_lut_BUFX2
ABUFX2_17 [clk] clk_bF$buf4 d_lut_BUFX2
ABUFX2_18 [clk] clk_bF$buf3 d_lut_BUFX2
ABUFX2_19 [clk] clk_bF$buf2 d_lut_BUFX2
ABUFX2_20 [clk] clk_bF$buf1 d_lut_BUFX2
ABUFX2_21 [clk] clk_bF$buf0 d_lut_BUFX2
ABUFX2_22 [_664_] _664__bF$buf4 d_lut_BUFX2
ABUFX2_23 [_664_] _664__bF$buf3 d_lut_BUFX2
ABUFX2_24 [_664_] _664__bF$buf2 d_lut_BUFX2
ABUFX2_25 [_664_] _664__bF$buf1 d_lut_BUFX2
ABUFX2_26 [_664_] _664__bF$buf0 d_lut_BUFX2
ABUFX2_27 [_244_] _244__bF$buf3 d_lut_BUFX2
ABUFX2_28 [_244_] _244__bF$buf2 d_lut_BUFX2
ABUFX2_29 [_244_] _244__bF$buf1 d_lut_BUFX2
ABUFX2_30 [_244_] _244__bF$buf0 d_lut_BUFX2
ABUFX2_31 [ULA_B_3_] ULA_B_3_bF$buf7 d_lut_BUFX2
ABUFX2_32 [ULA_B_3_] ULA_B_3_bF$buf6 d_lut_BUFX2
ABUFX2_33 [ULA_B_3_] ULA_B_3_bF$buf5 d_lut_BUFX2
ABUFX2_34 [ULA_B_3_] ULA_B_3_bF$buf4 d_lut_BUFX2
ABUFX2_35 [ULA_B_3_] ULA_B_3_bF$buf3 d_lut_BUFX2
ABUFX2_36 [ULA_B_3_] ULA_B_3_bF$buf2 d_lut_BUFX2
ABUFX2_37 [ULA_B_3_] ULA_B_3_bF$buf1 d_lut_BUFX2
ABUFX2_38 [ULA_B_3_] ULA_B_3_bF$buf0 d_lut_BUFX2
ABUFX2_39 [_74_] _74__bF$buf4 d_lut_BUFX2
ABUFX2_40 [_74_] _74__bF$buf3 d_lut_BUFX2
ABUFX2_41 [_74_] _74__bF$buf2 d_lut_BUFX2
ABUFX2_42 [_74_] _74__bF$buf1 d_lut_BUFX2
ABUFX2_43 [_74_] _74__bF$buf0 d_lut_BUFX2
ABUFX2_44 [_106_] _106__bF$buf4 d_lut_BUFX2
ABUFX2_45 [_106_] _106__bF$buf3 d_lut_BUFX2
ABUFX2_46 [_106_] _106__bF$buf2 d_lut_BUFX2
ABUFX2_47 [_106_] _106__bF$buf1 d_lut_BUFX2
ABUFX2_48 [_106_] _106__bF$buf0 d_lut_BUFX2
ABUFX2_49 [ULA_B_0_] ULA_B_0_bF$buf7 d_lut_BUFX2
ABUFX2_50 [ULA_B_0_] ULA_B_0_bF$buf6 d_lut_BUFX2
ABUFX2_51 [ULA_B_0_] ULA_B_0_bF$buf5 d_lut_BUFX2
ABUFX2_52 [ULA_B_0_] ULA_B_0_bF$buf4 d_lut_BUFX2
ABUFX2_53 [ULA_B_0_] ULA_B_0_bF$buf3 d_lut_BUFX2
ABUFX2_54 [ULA_B_0_] ULA_B_0_bF$buf2 d_lut_BUFX2
ABUFX2_55 [ULA_B_0_] ULA_B_0_bF$buf1 d_lut_BUFX2
ABUFX2_56 [ULA_B_0_] ULA_B_0_bF$buf0 d_lut_BUFX2
ABUFX2_57 [_138_] _138__bF$buf4 d_lut_BUFX2
ABUFX2_58 [_138_] _138__bF$buf3 d_lut_BUFX2
ABUFX2_59 [_138_] _138__bF$buf2 d_lut_BUFX2
ABUFX2_60 [_138_] _138__bF$buf1 d_lut_BUFX2
ABUFX2_61 [_138_] _138__bF$buf0 d_lut_BUFX2
ABUFX2_62 [_458_] _458__bF$buf3 d_lut_BUFX2
ABUFX2_63 [_458_] _458__bF$buf2 d_lut_BUFX2
ABUFX2_64 [_458_] _458__bF$buf1 d_lut_BUFX2
ABUFX2_65 [_458_] _458__bF$buf0 d_lut_BUFX2
ABUFX2_66 [_705_] _705__bF$buf4 d_lut_BUFX2
ABUFX2_67 [_705_] _705__bF$buf3 d_lut_BUFX2
ABUFX2_68 [_705_] _705__bF$buf2 d_lut_BUFX2
ABUFX2_69 [_705_] _705__bF$buf1 d_lut_BUFX2
ABUFX2_70 [_705_] _705__bF$buf0 d_lut_BUFX2
ABUFX2_71 [_684_] _684__bF$buf6 d_lut_BUFX2
ABUFX2_72 [_684_] _684__bF$buf5 d_lut_BUFX2
ABUFX2_73 [_684_] _684__bF$buf4 d_lut_BUFX2
ABUFX2_74 [_684_] _684__bF$buf3 d_lut_BUFX2
ABUFX2_75 [_684_] _684__bF$buf2 d_lut_BUFX2
ABUFX2_76 [_684_] _684__bF$buf1 d_lut_BUFX2
ABUFX2_77 [_684_] _684__bF$buf0 d_lut_BUFX2
ABUFX2_78 [_490_] _490__bF$buf4 d_lut_BUFX2
ABUFX2_79 [_490_] _490__bF$buf3 d_lut_BUFX2
ABUFX2_80 [_490_] _490__bF$buf2 d_lut_BUFX2
ABUFX2_81 [_490_] _490__bF$buf1 d_lut_BUFX2
ABUFX2_82 [_490_] _490__bF$buf0 d_lut_BUFX2
ABUFX2_83 [ULA_ctrl_0_] ULA_ctrl_0_bF$buf5 d_lut_BUFX2
ABUFX2_84 [ULA_ctrl_0_] ULA_ctrl_0_bF$buf4 d_lut_BUFX2
ABUFX2_85 [ULA_ctrl_0_] ULA_ctrl_0_bF$buf3 d_lut_BUFX2
ABUFX2_86 [ULA_ctrl_0_] ULA_ctrl_0_bF$buf2 d_lut_BUFX2
ABUFX2_87 [ULA_ctrl_0_] ULA_ctrl_0_bF$buf1 d_lut_BUFX2
ABUFX2_88 [ULA_ctrl_0_] ULA_ctrl_0_bF$buf0 d_lut_BUFX2
ABUFX2_89 [_255_] _255__bF$buf6 d_lut_BUFX2
ABUFX2_90 [_255_] _255__bF$buf5 d_lut_BUFX2
ABUFX2_91 [_255_] _255__bF$buf4 d_lut_BUFX2
ABUFX2_92 [_255_] _255__bF$buf3 d_lut_BUFX2
ABUFX2_93 [_255_] _255__bF$buf2 d_lut_BUFX2
ABUFX2_94 [_255_] _255__bF$buf1 d_lut_BUFX2
ABUFX2_95 [_255_] _255__bF$buf0 d_lut_BUFX2
ABUFX2_96 [_149_] _149__bF$buf4 d_lut_BUFX2
ABUFX2_97 [_149_] _149__bF$buf3 d_lut_BUFX2
ABUFX2_98 [_149_] _149__bF$buf2 d_lut_BUFX2
ABUFX2_99 [_149_] _149__bF$buf1 d_lut_BUFX2
ABUFX2_100 [_149_] _149__bF$buf0 d_lut_BUFX2
ABUFX2_101 [_340_] _340__bF$buf5 d_lut_BUFX2
ABUFX2_102 [_340_] _340__bF$buf4 d_lut_BUFX2
ABUFX2_103 [_340_] _340__bF$buf3 d_lut_BUFX2
ABUFX2_104 [_340_] _340__bF$buf2 d_lut_BUFX2
ABUFX2_105 [_340_] _340__bF$buf1 d_lut_BUFX2
ABUFX2_106 [_340_] _340__bF$buf0 d_lut_BUFX2
ABUFX2_107 [ULA_B_2_] ULA_B_2_bF$buf7 d_lut_BUFX2
ABUFX2_108 [ULA_B_2_] ULA_B_2_bF$buf6 d_lut_BUFX2
ABUFX2_109 [ULA_B_2_] ULA_B_2_bF$buf5 d_lut_BUFX2
ABUFX2_110 [ULA_B_2_] ULA_B_2_bF$buf4 d_lut_BUFX2
ABUFX2_111 [ULA_B_2_] ULA_B_2_bF$buf3 d_lut_BUFX2
ABUFX2_112 [ULA_B_2_] ULA_B_2_bF$buf2 d_lut_BUFX2
ABUFX2_113 [ULA_B_2_] ULA_B_2_bF$buf1 d_lut_BUFX2
ABUFX2_114 [ULA_B_2_] ULA_B_2_bF$buf0 d_lut_BUFX2
ABUFX2_115 [_842_] _842__bF$buf3 d_lut_BUFX2
ABUFX2_116 [_842_] _842__bF$buf2 d_lut_BUFX2
ABUFX2_117 [_842_] _842__bF$buf1 d_lut_BUFX2
ABUFX2_118 [_842_] _842__bF$buf0 d_lut_BUFX2
ABUFX2_119 [_639_] _639__bF$buf3 d_lut_BUFX2
ABUFX2_120 [_639_] _639__bF$buf2 d_lut_BUFX2
ABUFX2_121 [_639_] _639__bF$buf1 d_lut_BUFX2
ABUFX2_122 [_639_] _639__bF$buf0 d_lut_BUFX2
ABUFX2_123 [ULA_B_4_] ULA_B_4_bF$buf3 d_lut_BUFX2
ABUFX2_124 [ULA_B_4_] ULA_B_4_bF$buf2 d_lut_BUFX2
ABUFX2_125 [ULA_B_4_] ULA_B_4_bF$buf1 d_lut_BUFX2
ABUFX2_126 [ULA_B_4_] ULA_B_4_bF$buf0 d_lut_BUFX2
ABUFX2_127 [ULA_B_1_] ULA_B_1_bF$buf7 d_lut_BUFX2
ABUFX2_128 [ULA_B_1_] ULA_B_1_bF$buf6 d_lut_BUFX2
ABUFX2_129 [ULA_B_1_] ULA_B_1_bF$buf5 d_lut_BUFX2
ABUFX2_130 [ULA_B_1_] ULA_B_1_bF$buf4 d_lut_BUFX2
ABUFX2_131 [ULA_B_1_] ULA_B_1_bF$buf3 d_lut_BUFX2
ABUFX2_132 [ULA_B_1_] ULA_B_1_bF$buf2 d_lut_BUFX2
ABUFX2_133 [ULA_B_1_] ULA_B_1_bF$buf1 d_lut_BUFX2
ABUFX2_134 [ULA_B_1_] ULA_B_1_bF$buf0 d_lut_BUFX2
ABUFX2_135 [_277_] _277__bF$buf4 d_lut_BUFX2
ABUFX2_136 [_277_] _277__bF$buf3 d_lut_BUFX2
ABUFX2_137 [_277_] _277__bF$buf2 d_lut_BUFX2
ABUFX2_138 [_277_] _277__bF$buf1 d_lut_BUFX2
ABUFX2_139 [_277_] _277__bF$buf0 d_lut_BUFX2
AINVX1_1 [ULA_ctrl_1_bF$buf5] _30_ d_lut_INVX1
ANAND3X1_1 [_30_ ULA_ctrl_2_ ULA_ctrl_3_] _41_ d_lut_NAND3X1
ANAND3X1_2 [ULA_ctrl_2_ ULA_ctrl_1_bF$buf4 ULA_ctrl_3_] _42_ d_lut_NAND3X1
AAND2X2_1 [_41_ _42_] _52_ d_lut_AND2X2
AINVX1_2 [_52_] _63_ d_lut_INVX1
AINVX2_1 [ULA_ctrl_2_] _74_ d_lut_INVX2
ANAND3X1_3 [_74__bF$buf4 ULA_ctrl_3_ _30_] _94_ d_lut_NAND3X1
ANAND3X1_4 [_74__bF$buf3 ULA_ctrl_1_bF$buf3 ULA_ctrl_3_] _105_ d_lut_NAND3X1
AINVX2_2 [ULA_ctrl_3_] _106_ d_lut_INVX2
ANAND2X1_1 [ULA_ctrl_2_ _106__bF$buf4] _127_ d_lut_NAND2X1
ANAND3X1_5 [_94_ _105_ _127_] _137_ d_lut_NAND3X1
AOR2X2_1 [_63_ _137_] _138_ d_lut_OR2X2
AINVX2_3 [ULA_ctrl_0_bF$buf5] _149_ d_lut_INVX2
ANAND2X1_2 [ULA_A_0_ ULA_B_0_bF$buf7] _169_ d_lut_NAND2X1
ANAND2X1_3 [_149__bF$buf4 _169_] _180_ d_lut_NAND2X1
ANAND3X1_6 [ULA_ctrl_0_bF$buf4 ULA_A_0_ ULA_B_0_bF$buf6] _181_ d_lut_NAND3X1
AAOI21X1_1 [_180_ _181_ _138__bF$buf4] _201_ d_lut_AOI21X1
AINVX2_4 [ULA_B_3_bF$buf7] _212_ d_lut_INVX2
AOR2X2_2 [ULA_B_0_bF$buf5 ULA_B_1_bF$buf7] _213_ d_lut_OR2X2
AOR2X2_3 [ULA_B_2_bF$buf7 _213_] _223_ d_lut_OR2X2
ANAND2X1_4 [ULA_ctrl_0_bF$buf3 _223_] _234_ d_lut_NAND2X1
AXOR2X1_1 [_212__bF$buf5 _234_] _244_ d_lut_XOR2X1
AINVX2_5 [ULA_B_2_bF$buf6] _255_ d_lut_INVX2
ANAND2X1_5 [ULA_ctrl_0_bF$buf2 _213_] _266_ d_lut_NAND2X1
AXOR2X1_2 [_255__bF$buf6 _266_] _277_ d_lut_XOR2X1
AMUX2X1_1 [ULA_A_3_ ULA_A_2_ ULA_B_0_bF$buf4] _287_ d_lut_MUX2X1
AOR2X2_4 [ULA_ctrl_0_bF$buf1 ULA_B_1_bF$buf6] _298_ d_lut_OR2X2
AINVX1_3 [_298_] _308_ d_lut_INVX1
AXNOR2X1_1 [ULA_B_0_bF$buf3 ULA_B_1_bF$buf5] _319_ d_lut_XNOR2X1
AAND2X2_2 [_319_ ULA_ctrl_0_bF$buf0] _330_ d_lut_AND2X2
AOR2X2_5 [_308_ _330_] _340_ d_lut_OR2X2
AMUX2X1_2 [ULA_A_1_ ULA_A_0_ ULA_B_0_bF$buf2] _351_ d_lut_MUX2X1
AMUX2X1_3 [_351_ _287_ _340__bF$buf5] _362_ d_lut_MUX2X1
AMUX2X1_4 [ULA_A_5_ ULA_A_4_ ULA_B_0_bF$buf1] _372_ d_lut_MUX2X1
AMUX2X1_5 [ULA_A_7_ ULA_A_6_ ULA_B_0_bF$buf0] _383_ d_lut_MUX2X1
AMUX2X1_6 [_372_ _383_ _340__bF$buf4] _394_ d_lut_MUX2X1
AMUX2X1_7 [_394_ _362_ _277__bF$buf4] _404_ d_lut_MUX2X1
AOR2X2_6 [_244__bF$buf3 _404_] _415_ d_lut_OR2X2
AOR2X2_7 [ULA_B_3_bF$buf6 _223_] _426_ d_lut_OR2X2
AAND2X2_3 [_426_ ULA_ctrl_0_bF$buf5] _436_ d_lut_AND2X2
AXOR2X1_3 [ULA_B_4_bF$buf3 _436_] _447_ d_lut_XOR2X1
AXOR2X1_4 [ULA_B_2_bF$buf5 _266_] _458_ d_lut_XOR2X1
AXOR2X1_5 [ULA_B_0_bF$buf7 ULA_B_1_bF$buf4] _468_ d_lut_XOR2X1
AOR2X2_8 [_149__bF$buf3 _468_] _479_ d_lut_OR2X2
AAND2X2_4 [_479_ _298_] _490_ d_lut_AND2X2
AMUX2X1_8 [ULA_A_15_ ULA_A_14_ ULA_B_0_bF$buf6] _500_ d_lut_MUX2X1
AAND2X2_5 [_490__bF$buf4 _500_] _511_ d_lut_AND2X2
AMUX2X1_9 [ULA_A_13_ ULA_A_12_ ULA_B_0_bF$buf5] _522_ d_lut_MUX2X1
AAND2X2_6 [_340__bF$buf3 _522_] _532_ d_lut_AND2X2
AOR2X2_9 [_532_ _511_] _543_ d_lut_OR2X2
AMUX2X1_10 [ULA_A_11_ ULA_A_10_ ULA_B_0_bF$buf4] _554_ d_lut_MUX2X1
AAND2X2_7 [_490__bF$buf3 _554_] _564_ d_lut_AND2X2
AMUX2X1_11 [ULA_A_9_ ULA_A_8_ ULA_B_0_bF$buf3] _575_ d_lut_MUX2X1
AAND2X2_8 [_340__bF$buf2 _575_] _585_ d_lut_AND2X2
AOR2X2_10 [_585_ _564_] _596_ d_lut_OR2X2
AMUX2X1_12 [_596_ _543_ _458__bF$buf3] _607_ d_lut_MUX2X1
AAOI21X1_2 [_244__bF$buf2 _607_ _447__bF$buf3] _617_ d_lut_AOI21X1
AAND2X2_9 [_617_ _415_] _638_ d_lut_AND2X2
AAND2X2_10 [_94_ _42_] _639_ d_lut_AND2X2
AOR2X2_11 [_639__bF$buf3 _447__bF$buf2] _649_ d_lut_OR2X2
AMUX2X1_13 [ULA_A_31_ ULA_A_30_ ULA_B_0_bF$buf2] _650_ d_lut_MUX2X1
AAND2X2_11 [_490__bF$buf2 _650_] _651_ d_lut_AND2X2
AMUX2X1_14 [ULA_A_29_ ULA_A_28_ ULA_B_0_bF$buf1] _652_ d_lut_MUX2X1
AAND2X2_12 [_340__bF$buf1 _652_] _653_ d_lut_AND2X2
AOR2X2_12 [_653_ _651_] _654_ d_lut_OR2X2
AAND2X2_13 [_654_ _277__bF$buf3] _655_ d_lut_AND2X2
AMUX2X1_15 [ULA_A_25_ ULA_A_24_ ULA_B_0_bF$buf0] _656_ d_lut_MUX2X1
AAND2X2_14 [_340__bF$buf0 _656_] _657_ d_lut_AND2X2
AMUX2X1_16 [ULA_A_27_ ULA_A_26_ ULA_B_0_bF$buf7] _658_ d_lut_MUX2X1
AAND2X2_15 [_490__bF$buf1 _658_] _659_ d_lut_AND2X2
AOR2X2_13 [_657_ _659_] _660_ d_lut_OR2X2
AAND2X2_16 [_660_ _458__bF$buf2] _661_ d_lut_AND2X2
AOR2X2_14 [_655_ _661_] _662_ d_lut_OR2X2
AAND2X2_17 [_662_ _244__bF$buf1] _663_ d_lut_AND2X2
AXOR2X1_6 [ULA_B_3_bF$buf5 _234_] _664_ d_lut_XOR2X1
AMUX2X1_17 [ULA_A_23_ ULA_A_22_ ULA_B_0_bF$buf6] _665_ d_lut_MUX2X1
AAND2X2_18 [_490__bF$buf0 _665_] _666_ d_lut_AND2X2
AMUX2X1_18 [ULA_A_21_ ULA_A_20_ ULA_B_0_bF$buf5] _667_ d_lut_MUX2X1
AAND2X2_19 [_340__bF$buf5 _667_] _668_ d_lut_AND2X2
AOR2X2_15 [_668_ _666_] _669_ d_lut_OR2X2
AAND2X2_20 [_669_ _277__bF$buf2] _670_ d_lut_AND2X2
AMUX2X1_19 [ULA_A_19_ ULA_A_18_ ULA_B_0_bF$buf4] _671_ d_lut_MUX2X1
AAND2X2_21 [_490__bF$buf4 _671_] _672_ d_lut_AND2X2
AMUX2X1_20 [ULA_A_17_ ULA_A_16_ ULA_B_0_bF$buf3] _673_ d_lut_MUX2X1
AAND2X2_22 [_340__bF$buf4 _673_] _674_ d_lut_AND2X2
AOR2X2_16 [_674_ _672_] _675_ d_lut_OR2X2
AAND2X2_23 [_675_ _458__bF$buf1] _676_ d_lut_AND2X2
AOR2X2_17 [_670_ _676_] _677_ d_lut_OR2X2
AAND2X2_24 [_677_ _664__bF$buf4] _678_ d_lut_AND2X2
AOR2X2_18 [_639__bF$buf2 _678_] _679_ d_lut_OR2X2
AOR2X2_19 [_663_ _679_] _680_ d_lut_OR2X2
AAND2X2_25 [_680_ _649_] _681_ d_lut_AND2X2
AOR2X2_20 [_681_ _638_] _682_ d_lut_OR2X2
AAND2X2_26 [_383_ ULA_B_1_bF$buf3] _683_ d_lut_AND2X2
AINVX2_6 [ULA_B_1_bF$buf2] _684_ d_lut_INVX2
AAND2X2_27 [_372_ _684__bF$buf6] _685_ d_lut_AND2X2
AOR2X2_21 [_683_ _685_] _686_ d_lut_OR2X2
AAND2X2_28 [_686_ ULA_B_2_bF$buf4] _687_ d_lut_AND2X2
AAND2X2_29 [_351_ _684__bF$buf5] _688_ d_lut_AND2X2
AAND2X2_30 [_287_ ULA_B_1_bF$buf1] _689_ d_lut_AND2X2
AOR2X2_22 [_688_ _689_] _690_ d_lut_OR2X2
AAND2X2_31 [_690_ _255__bF$buf5] _691_ d_lut_AND2X2
AOR2X2_23 [_687_ _691_] _692_ d_lut_OR2X2
AAND2X2_32 [_692_ _212__bF$buf4] _693_ d_lut_AND2X2
AAND2X2_33 [_500_ ULA_B_1_bF$buf0] _694_ d_lut_AND2X2
AAND2X2_34 [_522_ _684__bF$buf4] _695_ d_lut_AND2X2
AOR2X2_24 [_694_ _695_] _696_ d_lut_OR2X2
AAND2X2_35 [_696_ ULA_B_2_bF$buf3] _697_ d_lut_AND2X2
AAND2X2_36 [_554_ ULA_B_1_bF$buf7] _698_ d_lut_AND2X2
AAND2X2_37 [_575_ _684__bF$buf3] _699_ d_lut_AND2X2
AOR2X2_25 [_698_ _699_] _700_ d_lut_OR2X2
AAND2X2_38 [_700_ _255__bF$buf4] _701_ d_lut_AND2X2
AOR2X2_26 [_697_ _701_] _702_ d_lut_OR2X2
AAND2X2_39 [_702_ ULA_B_3_bF$buf4] _703_ d_lut_AND2X2
AOR2X2_27 [_693_ _703_] _704_ d_lut_OR2X2
AOR2X2_28 [ULA_B_4_bF$buf2 _105_] _705_ d_lut_OR2X2
AOR2X2_29 [_705__bF$buf4 _704_] _706_ d_lut_OR2X2
AAND2X2_40 [_652_ _684__bF$buf2] _707_ d_lut_AND2X2
AAND2X2_41 [_650_ ULA_B_1_bF$buf6] _708_ d_lut_AND2X2
AOR2X2_30 [_707_ _708_] _709_ d_lut_OR2X2
AAND2X2_42 [_709_ ULA_B_2_bF$buf2] _710_ d_lut_AND2X2
AAND2X2_43 [_658_ ULA_B_1_bF$buf5] _711_ d_lut_AND2X2
AAND2X2_44 [_656_ _684__bF$buf1] _712_ d_lut_AND2X2
AOR2X2_31 [_711_ _712_] _713_ d_lut_OR2X2
AAND2X2_45 [_713_ _255__bF$buf3] _714_ d_lut_AND2X2
AOR2X2_32 [_710_ _714_] _715_ d_lut_OR2X2
AAND2X2_46 [_715_ ULA_B_3_bF$buf3] _716_ d_lut_AND2X2
AAND2X2_47 [_665_ ULA_B_1_bF$buf4] _717_ d_lut_AND2X2
AAND2X2_48 [_667_ _684__bF$buf0] _718_ d_lut_AND2X2
AOR2X2_33 [_717_ _718_] _719_ d_lut_OR2X2
AAND2X2_49 [_719_ ULA_B_2_bF$buf1] _720_ d_lut_AND2X2
AAND2X2_50 [_671_ ULA_B_1_bF$buf3] _721_ d_lut_AND2X2
AAND2X2_51 [_673_ _684__bF$buf6] _722_ d_lut_AND2X2
AOR2X2_34 [_721_ _722_] _723_ d_lut_OR2X2
AAND2X2_52 [_723_ _255__bF$buf2] _724_ d_lut_AND2X2
AOR2X2_35 [_720_ _724_] _725_ d_lut_OR2X2
AAND2X2_53 [_725_ _212__bF$buf3] _726_ d_lut_AND2X2
AOR2X2_36 [_716_ _726_] _727_ d_lut_OR2X2
AINVX1_4 [ULA_B_4_bF$buf1] _728_ d_lut_INVX1
AOR2X2_37 [_728_ _105_] _729_ d_lut_OR2X2
AOR2X2_38 [_729_ _727_] _730_ d_lut_OR2X2
AINVX1_5 [_426_] _731_ d_lut_INVX1
ANOR2X1_1 [_41_ ULA_B_4_bF$buf0] _732_ d_lut_NOR2X1
ANAND3X1_7 [_732_ ULA_A_0_ _731_] _733_ d_lut_NAND3X1
ANAND3X1_8 [_106__bF$buf3 ULA_ctrl_2_ ULA_ctrl_1_bF$buf2] _734_ d_lut_NAND3X1
ANAND3X1_9 [_30_ ULA_ctrl_2_ _106__bF$buf2] _735_ d_lut_NAND3X1
ANAND2X1_6 [_734_ _735_] _736_ d_lut_NAND2X1
AINVX1_6 [ULA_A_0_] _737_ d_lut_INVX1
AINVX1_7 [ULA_B_0_bF$buf2] _738_ d_lut_INVX1
ANAND2X1_7 [_737_ _738_] _739_ d_lut_NAND2X1
ANAND3X1_10 [ULA_A_0_ ULA_B_0_bF$buf1 ULA_ctrl_1_bF$buf1] _740_ d_lut_NAND3X1
ANAND3X1_11 [_736_ _739_ _740_] _741_ d_lut_NAND3X1
AAND2X2_54 [_741_ _138__bF$buf3] _742_ d_lut_AND2X2
AAND2X2_55 [_742_ _733_] _743_ d_lut_AND2X2
AAND2X2_56 [_743_ _730_] _744_ d_lut_AND2X2
AAND2X2_57 [_744_ _706_] _745_ d_lut_AND2X2
AAND2X2_58 [_682_ _745_] _746_ d_lut_AND2X2
AOR2X2_39 [_201_ _746_] _747_ d_lut_OR2X2
AINVX1_8 [_747_] _0__0_ d_lut_INVX1
ANAND2X1_8 [ULA_A_1_ ULA_B_1_bF$buf2] _748_ d_lut_NAND2X1
AXOR2X1_7 [_149__bF$buf2 _748_] _749_ d_lut_XOR2X1
ANOR2X1_2 [_138__bF$buf2 _749_] _750_ d_lut_NOR2X1
ANAND3X1_12 [_738_ ULA_B_1_bF$buf1 ULA_A_31_] _751_ d_lut_NAND3X1
AMUX2X1_21 [ULA_A_30_ ULA_A_29_ ULA_B_0_bF$buf0] _752_ d_lut_MUX2X1
AOR2X2_40 [_752_ _490__bF$buf3] _753_ d_lut_OR2X2
AAND2X2_59 [_753_ _751_] _754_ d_lut_AND2X2
AAND2X2_60 [_754_ _277__bF$buf1] _755_ d_lut_AND2X2
AMUX2X1_22 [ULA_A_28_ ULA_A_27_ ULA_B_0_bF$buf7] _756_ d_lut_MUX2X1
AAND2X2_61 [_490__bF$buf2 _756_] _757_ d_lut_AND2X2
AMUX2X1_23 [ULA_A_26_ ULA_A_25_ ULA_B_0_bF$buf6] _758_ d_lut_MUX2X1
AAND2X2_62 [_340__bF$buf3 _758_] _759_ d_lut_AND2X2
AOR2X2_41 [_759_ _757_] _760_ d_lut_OR2X2
AAND2X2_63 [_760_ _458__bF$buf0] _761_ d_lut_AND2X2
AOR2X2_42 [_755_ _761_] _762_ d_lut_OR2X2
AAND2X2_64 [_762_ _244__bF$buf0] _763_ d_lut_AND2X2
AMUX2X1_24 [ULA_A_22_ ULA_A_21_ ULA_B_0_bF$buf5] _764_ d_lut_MUX2X1
AMUX2X1_25 [ULA_A_24_ ULA_A_23_ ULA_B_0_bF$buf4] _765_ d_lut_MUX2X1
AMUX2X1_26 [_764_ _765_ _340__bF$buf2] _766_ d_lut_MUX2X1
AMUX2X1_27 [ULA_A_18_ ULA_A_17_ ULA_B_0_bF$buf3] _767_ d_lut_MUX2X1
AMUX2X1_28 [ULA_A_20_ ULA_A_19_ ULA_B_0_bF$buf2] _768_ d_lut_MUX2X1
AMUX2X1_29 [_767_ _768_ _340__bF$buf1] _769_ d_lut_MUX2X1
AMUX2X1_30 [_769_ _766_ _458__bF$buf3] _770_ d_lut_MUX2X1
AAND2X2_65 [_770_ _664__bF$buf3] _771_ d_lut_AND2X2
AOR2X2_43 [_763_ _771_] _772_ d_lut_OR2X2
AAND2X2_66 [_772_ _447__bF$buf1] _773_ d_lut_AND2X2
AINVX1_9 [_447__bF$buf0] _774_ d_lut_INVX1
AMUX2X1_31 [ULA_A_16_ ULA_A_15_ ULA_B_0_bF$buf1] _775_ d_lut_MUX2X1
AAND2X2_67 [_490__bF$buf1 _775_] _776_ d_lut_AND2X2
AMUX2X1_32 [ULA_A_14_ ULA_A_13_ ULA_B_0_bF$buf0] _777_ d_lut_MUX2X1
AAND2X2_68 [_340__bF$buf0 _777_] _778_ d_lut_AND2X2
AOR2X2_44 [_778_ _776_] _779_ d_lut_OR2X2
AAND2X2_69 [_779_ _277__bF$buf0] _780_ d_lut_AND2X2
AMUX2X1_33 [ULA_A_12_ ULA_A_11_ ULA_B_0_bF$buf7] _781_ d_lut_MUX2X1
AAND2X2_70 [_490__bF$buf0 _781_] _782_ d_lut_AND2X2
AMUX2X1_34 [ULA_A_10_ ULA_A_9_ ULA_B_0_bF$buf6] _783_ d_lut_MUX2X1
AAND2X2_71 [_340__bF$buf5 _783_] _784_ d_lut_AND2X2
AOR2X2_45 [_784_ _782_] _785_ d_lut_OR2X2
AAND2X2_72 [_785_ _458__bF$buf2] _786_ d_lut_AND2X2
AOR2X2_46 [_780_ _786_] _787_ d_lut_OR2X2
AAND2X2_73 [_787_ _244__bF$buf3] _788_ d_lut_AND2X2
AMUX2X1_35 [ULA_A_4_ ULA_A_3_ ULA_B_0_bF$buf5] _789_ d_lut_MUX2X1
AMUX2X1_36 [ULA_A_2_ ULA_A_1_ ULA_B_0_bF$buf4] _790_ d_lut_MUX2X1
AMUX2X1_37 [_790_ _789_ _340__bF$buf4] _791_ d_lut_MUX2X1
AMUX2X1_38 [ULA_A_6_ ULA_A_5_ ULA_B_0_bF$buf3] _792_ d_lut_MUX2X1
AMUX2X1_39 [ULA_A_8_ ULA_A_7_ ULA_B_0_bF$buf2] _793_ d_lut_MUX2X1
AMUX2X1_40 [_792_ _793_ _340__bF$buf3] _794_ d_lut_MUX2X1
AMUX2X1_41 [_794_ _791_ _277__bF$buf4] _795_ d_lut_MUX2X1
AAND2X2_74 [_795_ _664__bF$buf2] _796_ d_lut_AND2X2
AOR2X2_47 [_788_ _796_] _797_ d_lut_OR2X2
AAND2X2_75 [_797_ _774_] _798_ d_lut_AND2X2
AOR2X2_48 [_773_ _798_] _799_ d_lut_OR2X2
AOR2X2_49 [_639__bF$buf1 _799_] _800_ d_lut_OR2X2
AMUX2X1_42 [_790_ _789_ _684__bF$buf5] _801_ d_lut_MUX2X1
AMUX2X1_43 [_793_ _792_ ULA_B_1_bF$buf0] _802_ d_lut_MUX2X1
AMUX2X1_44 [_802_ _801_ ULA_B_2_bF$buf0] _803_ d_lut_MUX2X1
AAND2X2_76 [_803_ _212__bF$buf2] _804_ d_lut_AND2X2
AAND2X2_77 [_775_ ULA_B_1_bF$buf7] _805_ d_lut_AND2X2
AAND2X2_78 [_777_ _684__bF$buf4] _806_ d_lut_AND2X2
AOR2X2_50 [_805_ _806_] _807_ d_lut_OR2X2
AAND2X2_79 [_807_ ULA_B_2_bF$buf7] _808_ d_lut_AND2X2
AAND2X2_80 [_781_ ULA_B_1_bF$buf6] _809_ d_lut_AND2X2
AAND2X2_81 [_783_ _684__bF$buf3] _810_ d_lut_AND2X2
AOR2X2_51 [_809_ _810_] _811_ d_lut_OR2X2
AAND2X2_82 [_811_ _255__bF$buf1] _812_ d_lut_AND2X2
AOR2X2_52 [_808_ _812_] _813_ d_lut_OR2X2
AAND2X2_83 [_813_ ULA_B_3_bF$buf2] _814_ d_lut_AND2X2
AOR2X2_53 [_814_ _804_] _815_ d_lut_OR2X2
AOR2X2_54 [_705__bF$buf3 _815_] _816_ d_lut_OR2X2
AAND2X2_84 [_752_ _684__bF$buf2] _817_ d_lut_AND2X2
AINVX1_10 [ULA_A_31_] _818_ d_lut_INVX1
AOR2X2_55 [ULA_B_0_bF$buf1 _818_] _819_ d_lut_OR2X2
AAND2X2_85 [_819_ ULA_B_1_bF$buf5] _820_ d_lut_AND2X2
AOR2X2_56 [_817_ _820_] _821_ d_lut_OR2X2
AAND2X2_86 [_756_ ULA_B_1_bF$buf4] _822_ d_lut_AND2X2
AAND2X2_87 [_758_ _684__bF$buf1] _823_ d_lut_AND2X2
AOR2X2_57 [_822_ _823_] _824_ d_lut_OR2X2
AMUX2X1_45 [_821_ _824_ ULA_B_2_bF$buf6] _825_ d_lut_MUX2X1
AAND2X2_88 [_765_ ULA_B_1_bF$buf3] _826_ d_lut_AND2X2
AAND2X2_89 [_764_ _684__bF$buf0] _827_ d_lut_AND2X2
AOR2X2_58 [_826_ _827_] _828_ d_lut_OR2X2
AAND2X2_90 [_768_ ULA_B_1_bF$buf2] _829_ d_lut_AND2X2
AAND2X2_91 [_767_ _684__bF$buf6] _830_ d_lut_AND2X2
AOR2X2_59 [_829_ _830_] _831_ d_lut_OR2X2
AMUX2X1_46 [_831_ _828_ _255__bF$buf0] _832_ d_lut_MUX2X1
AMUX2X1_47 [_825_ _832_ ULA_B_3_bF$buf1] _833_ d_lut_MUX2X1
AOR2X2_60 [_729_ _833_] _834_ d_lut_OR2X2
ANAND3X1_13 [ULA_ctrl_1_bF$buf0 ULA_A_1_ ULA_B_1_bF$buf1] _835_ d_lut_NAND3X1
AOAI21X1_1 [ULA_A_1_ ULA_B_1_bF$buf0 _835_] _836_ d_lut_OAI21X1
ANAND2X1_9 [ULA_ctrl_2_ _836_] _837_ d_lut_NAND2X1
AMUX2X1_48 [ULA_A_0_ ULA_A_1_ ULA_B_0_bF$buf0] _838_ d_lut_MUX2X1
AOR2X2_61 [ULA_B_1_bF$buf7 _838_] _839_ d_lut_OR2X2
AOR2X2_62 [ULA_B_2_bF$buf5 _839_] _840_ d_lut_OR2X2
ANOR2X1_3 [_840_ ULA_B_3_bF$buf0] _841_ d_lut_NOR2X1
AOR2X2_63 [ULA_B_4_bF$buf3 _52_] _842_ d_lut_OR2X2
AINVX1_11 [_842__bF$buf3] _843_ d_lut_INVX1
AAOI22X1_1 [_106__bF$buf1 _837_ _841_ _843_] _844_ d_lut_AOI22X1
AAND2X2_92 [_834_ _844_] _845_ d_lut_AND2X2
AAND2X2_93 [_845_ _816_] _846_ d_lut_AND2X2
AAND2X2_94 [_800_ _846_] _847_ d_lut_AND2X2
AOR2X2_64 [_750_ _847_] _848_ d_lut_OR2X2
AINVX1_12 [_848_] _0__1_ d_lut_INVX1
ANAND2X1_10 [ULA_A_2_ ULA_B_2_bF$buf4] _849_ d_lut_NAND2X1
ANAND2X1_11 [_149__bF$buf1 _849_] _850_ d_lut_NAND2X1
ANAND3X1_14 [ULA_ctrl_0_bF$buf4 ULA_A_2_ ULA_B_2_bF$buf3] _851_ d_lut_NAND3X1
AAOI21X1_3 [_850_ _851_ _138__bF$buf1] _852_ d_lut_AOI21X1
AOR2X2_65 [_650_ _490__bF$buf4] _853_ d_lut_OR2X2
AAND2X2_95 [_277__bF$buf3 _853_] _854_ d_lut_AND2X2
AAND2X2_96 [_340__bF$buf2 _658_] _855_ d_lut_AND2X2
AAND2X2_97 [_490__bF$buf3 _652_] _856_ d_lut_AND2X2
AOR2X2_66 [_855_ _856_] _857_ d_lut_OR2X2
AAND2X2_98 [_857_ _458__bF$buf1] _858_ d_lut_AND2X2
AOR2X2_67 [_854_ _858_] _859_ d_lut_OR2X2
AAND2X2_99 [_859_ _244__bF$buf2] _860_ d_lut_AND2X2
AAND2X2_100 [_490__bF$buf2 _656_] _861_ d_lut_AND2X2
AAND2X2_101 [_340__bF$buf1 _665_] _862_ d_lut_AND2X2
AOR2X2_68 [_862_ _861_] _863_ d_lut_OR2X2
AAND2X2_102 [_863_ _277__bF$buf2] _864_ d_lut_AND2X2
AAND2X2_103 [_490__bF$buf1 _667_] _865_ d_lut_AND2X2
AAND2X2_104 [_340__bF$buf0 _671_] _866_ d_lut_AND2X2
AOR2X2_69 [_866_ _865_] _867_ d_lut_OR2X2
AAND2X2_105 [_867_ _458__bF$buf0] _868_ d_lut_AND2X2
AOR2X2_70 [_864_ _868_] _869_ d_lut_OR2X2
AAND2X2_106 [_869_ _664__bF$buf1] _870_ d_lut_AND2X2
AOR2X2_71 [_860_ _870_] _871_ d_lut_OR2X2
AAND2X2_107 [_871_ _447__bF$buf3] _872_ d_lut_AND2X2
AAND2X2_108 [_490__bF$buf0 _673_] _873_ d_lut_AND2X2
AAND2X2_109 [_340__bF$buf5 _500_] _874_ d_lut_AND2X2
AOR2X2_72 [_874_ _873_] _875_ d_lut_OR2X2
AAND2X2_110 [_875_ _277__bF$buf1] _876_ d_lut_AND2X2
AAND2X2_111 [_490__bF$buf4 _522_] _877_ d_lut_AND2X2
AAND2X2_112 [_340__bF$buf4 _554_] _878_ d_lut_AND2X2
AOR2X2_73 [_878_ _877_] _879_ d_lut_OR2X2
AAND2X2_113 [_879_ _458__bF$buf3] _880_ d_lut_AND2X2
AOR2X2_74 [_876_ _880_] _881_ d_lut_OR2X2
AAND2X2_114 [_881_ _244__bF$buf1] _882_ d_lut_AND2X2
AAND2X2_115 [_490__bF$buf3 _575_] _883_ d_lut_AND2X2
AAND2X2_116 [_340__bF$buf3 _383_] _884_ d_lut_AND2X2
AOR2X2_75 [_884_ _883_] _885_ d_lut_OR2X2
AAND2X2_117 [_885_ _277__bF$buf0] _886_ d_lut_AND2X2
AAND2X2_118 [_490__bF$buf2 _372_] _887_ d_lut_AND2X2
AAND2X2_119 [_340__bF$buf2 _287_] _888_ d_lut_AND2X2
AOR2X2_76 [_888_ _887_] _889_ d_lut_OR2X2
AAND2X2_120 [_889_ _458__bF$buf2] _890_ d_lut_AND2X2
AOR2X2_77 [_886_ _890_] _891_ d_lut_OR2X2
AAND2X2_121 [_891_ _664__bF$buf0] _892_ d_lut_AND2X2
AOR2X2_78 [_882_ _892_] _893_ d_lut_OR2X2
AAND2X2_122 [_893_ _774_] _894_ d_lut_AND2X2
AOR2X2_79 [_872_ _894_] _895_ d_lut_OR2X2
AOR2X2_80 [_639__bF$buf0 _895_] _896_ d_lut_OR2X2
AAND2X2_123 [_575_ ULA_B_1_bF$buf6] _897_ d_lut_AND2X2
AAND2X2_124 [_383_ _684__bF$buf5] _898_ d_lut_AND2X2
AOR2X2_81 [_897_ _898_] _899_ d_lut_OR2X2
AAND2X2_125 [_899_ ULA_B_2_bF$buf2] _900_ d_lut_AND2X2
AAND2X2_126 [_287_ _684__bF$buf4] _901_ d_lut_AND2X2
AAND2X2_127 [_372_ ULA_B_1_bF$buf5] _902_ d_lut_AND2X2
AOR2X2_82 [_901_ _902_] _903_ d_lut_OR2X2
AAND2X2_128 [_903_ _255__bF$buf6] _904_ d_lut_AND2X2
AOR2X2_83 [_900_ _904_] _905_ d_lut_OR2X2
AAND2X2_129 [_905_ _212__bF$buf1] _906_ d_lut_AND2X2
AAND2X2_130 [_673_ ULA_B_1_bF$buf4] _907_ d_lut_AND2X2
AAND2X2_131 [_500_ _684__bF$buf3] _908_ d_lut_AND2X2
AOR2X2_84 [_907_ _908_] _909_ d_lut_OR2X2
AAND2X2_132 [_909_ ULA_B_2_bF$buf1] _910_ d_lut_AND2X2
AAND2X2_133 [_522_ ULA_B_1_bF$buf3] _911_ d_lut_AND2X2
AAND2X2_134 [_554_ _684__bF$buf2] _912_ d_lut_AND2X2
AOR2X2_85 [_911_ _912_] _913_ d_lut_OR2X2
AAND2X2_135 [_913_ _255__bF$buf5] _914_ d_lut_AND2X2
AOR2X2_86 [_910_ _914_] _915_ d_lut_OR2X2
AAND2X2_136 [_915_ ULA_B_3_bF$buf7] _916_ d_lut_AND2X2
AOR2X2_87 [_906_ _916_] _917_ d_lut_OR2X2
AOR2X2_88 [_705__bF$buf2 _917_] _918_ d_lut_OR2X2
AOR2X2_89 [ULA_B_1_bF$buf2 _650_] _919_ d_lut_OR2X2
AAND2X2_137 [_919_ ULA_B_2_bF$buf0] _920_ d_lut_AND2X2
AAND2X2_138 [_652_ ULA_B_1_bF$buf1] _921_ d_lut_AND2X2
AAND2X2_139 [_658_ _684__bF$buf1] _922_ d_lut_AND2X2
AOR2X2_90 [_921_ _922_] _923_ d_lut_OR2X2
AAND2X2_140 [_923_ _255__bF$buf4] _924_ d_lut_AND2X2
AOR2X2_91 [_920_ _924_] _925_ d_lut_OR2X2
AAND2X2_141 [_925_ ULA_B_3_bF$buf6] _926_ d_lut_AND2X2
AAND2X2_142 [_665_ _684__bF$buf0] _927_ d_lut_AND2X2
AAND2X2_143 [_656_ ULA_B_1_bF$buf0] _928_ d_lut_AND2X2
AOR2X2_92 [_927_ _928_] _929_ d_lut_OR2X2
AAND2X2_144 [_929_ ULA_B_2_bF$buf7] _930_ d_lut_AND2X2
AAND2X2_145 [_667_ ULA_B_1_bF$buf7] _931_ d_lut_AND2X2
AAND2X2_146 [_671_ _684__bF$buf6] _932_ d_lut_AND2X2
AOR2X2_93 [_931_ _932_] _933_ d_lut_OR2X2
AAND2X2_147 [_933_ _255__bF$buf3] _934_ d_lut_AND2X2
AOR2X2_94 [_930_ _934_] _935_ d_lut_OR2X2
AAND2X2_148 [_935_ _212__bF$buf0] _936_ d_lut_AND2X2
AOR2X2_95 [_926_ _936_] _937_ d_lut_OR2X2
AOR2X2_96 [_729_ _937_] _938_ d_lut_OR2X2
AOR2X2_97 [ULA_A_2_ ULA_B_2_bF$buf6] _939_ d_lut_OR2X2
ANAND3X1_15 [ULA_ctrl_1_bF$buf5 ULA_A_2_ ULA_B_2_bF$buf5] _940_ d_lut_NAND3X1
AAND2X2_149 [_940_ _939_] _941_ d_lut_AND2X2
AOAI21X1_2 [_74__bF$buf2 _941_ _106__bF$buf0] _942_ d_lut_OAI21X1
AOR2X2_98 [ULA_B_0_bF$buf7 _737_] _943_ d_lut_OR2X2
AAND2X2_150 [_943_ ULA_B_1_bF$buf6] _944_ d_lut_AND2X2
AMUX2X1_49 [ULA_A_1_ ULA_A_2_ ULA_B_0_bF$buf6] _945_ d_lut_MUX2X1
AAND2X2_151 [_945_ _684__bF$buf5] _946_ d_lut_AND2X2
AOR2X2_99 [_946_ _944_] _947_ d_lut_OR2X2
AOR2X2_100 [ULA_B_2_bF$buf4 _947_] _948_ d_lut_OR2X2
AOR2X2_101 [ULA_B_3_bF$buf5 _948_] _949_ d_lut_OR2X2
AOR2X2_102 [_842__bF$buf2 _949_] _950_ d_lut_OR2X2
AAND2X2_152 [_950_ _942_] _951_ d_lut_AND2X2
AAND2X2_153 [_938_ _951_] _952_ d_lut_AND2X2
AAND2X2_154 [_952_ _918_] _953_ d_lut_AND2X2
AAND2X2_155 [_896_ _953_] _954_ d_lut_AND2X2
AOR2X2_103 [_852_ _954_] _955_ d_lut_OR2X2
AINVX1_13 [_955_] _0__2_ d_lut_INVX1
AAND2X2_156 [ULA_A_3_ ULA_B_3_bF$buf4] _956_ d_lut_AND2X2
AOR2X2_104 [ULA_ctrl_0_bF$buf3 _956_] _957_ d_lut_OR2X2
ANAND2X1_12 [ULA_ctrl_0_bF$buf2 _956_] _958_ d_lut_NAND2X1
AAOI21X1_4 [_957_ _958_ _138__bF$buf0] _959_ d_lut_AOI21X1
ANOR2X1_4 [ULA_B_0_bF$buf5 ULA_B_1_bF$buf5] _960_ d_lut_NOR2X1
ANAND3X1_16 [_960_ ULA_B_2_bF$buf3 ULA_A_31_] _961_ d_lut_NAND3X1
AAND2X2_157 [_490__bF$buf1 _752_] _962_ d_lut_AND2X2
AAND2X2_158 [_340__bF$buf1 _756_] _963_ d_lut_AND2X2
AOR2X2_105 [_963_ _962_] _964_ d_lut_OR2X2
AOR2X2_106 [_277__bF$buf4 _964_] _965_ d_lut_OR2X2
AAND2X2_159 [_965_ _961_] _966_ d_lut_AND2X2
AAND2X2_160 [_966_ _244__bF$buf0] _967_ d_lut_AND2X2
AAND2X2_161 [_490__bF$buf0 _758_] _968_ d_lut_AND2X2
AAND2X2_162 [_340__bF$buf0 _765_] _969_ d_lut_AND2X2
AOR2X2_107 [_969_ _968_] _970_ d_lut_OR2X2
AAND2X2_163 [_970_ _277__bF$buf3] _971_ d_lut_AND2X2
AAND2X2_164 [_490__bF$buf4 _764_] _972_ d_lut_AND2X2
AAND2X2_165 [_340__bF$buf5 _768_] _973_ d_lut_AND2X2
AOR2X2_108 [_973_ _972_] _974_ d_lut_OR2X2
AAND2X2_166 [_974_ _458__bF$buf1] _975_ d_lut_AND2X2
AOR2X2_109 [_971_ _975_] _976_ d_lut_OR2X2
AAND2X2_167 [_976_ _664__bF$buf4] _977_ d_lut_AND2X2
AOR2X2_110 [_967_ _977_] _978_ d_lut_OR2X2
AAND2X2_168 [_978_ _447__bF$buf2] _979_ d_lut_AND2X2
AMUX2X1_50 [_775_ _767_ _340__bF$buf4] _980_ d_lut_MUX2X1
AMUX2X1_51 [_781_ _777_ _340__bF$buf3] _981_ d_lut_MUX2X1
AMUX2X1_52 [_981_ _980_ _458__bF$buf0] _982_ d_lut_MUX2X1
AAND2X2_169 [_982_ _244__bF$buf3] _983_ d_lut_AND2X2
AMUX2X1_53 [_789_ _792_ _340__bF$buf2] _984_ d_lut_MUX2X1
AMUX2X1_54 [_793_ _783_ _340__bF$buf1] _985_ d_lut_MUX2X1
AMUX2X1_55 [_985_ _984_ _277__bF$buf2] _986_ d_lut_MUX2X1
AAND2X2_170 [_986_ _664__bF$buf3] _987_ d_lut_AND2X2
AOR2X2_111 [_983_ _987_] _988_ d_lut_OR2X2
AAND2X2_171 [_988_ _774_] _989_ d_lut_AND2X2
AOR2X2_112 [_979_ _989_] _990_ d_lut_OR2X2
AOR2X2_113 [_639__bF$buf3 _990_] _991_ d_lut_OR2X2
AMUX2X1_56 [_767_ _775_ ULA_B_1_bF$buf4] _992_ d_lut_MUX2X1
AMUX2X1_57 [_777_ _781_ ULA_B_1_bF$buf3] _993_ d_lut_MUX2X1
AMUX2X1_58 [_993_ _992_ _255__bF$buf2] _994_ d_lut_MUX2X1
AAND2X2_172 [_994_ ULA_B_3_bF$buf3] _995_ d_lut_AND2X2
AMUX2X1_59 [_792_ _789_ ULA_B_1_bF$buf2] _996_ d_lut_MUX2X1
AMUX2X1_60 [_783_ _793_ ULA_B_1_bF$buf1] _997_ d_lut_MUX2X1
AMUX2X1_61 [_997_ _996_ ULA_B_2_bF$buf2] _998_ d_lut_MUX2X1
AAND2X2_173 [_998_ _212__bF$buf5] _999_ d_lut_AND2X2
AOR2X2_114 [_705__bF$buf1 _999_] _1000_ d_lut_OR2X2
AOR2X2_115 [_995_ _1000_] _1001_ d_lut_OR2X2
AAND2X2_174 [_752_ ULA_B_1_bF$buf0] _1002_ d_lut_AND2X2
AAND2X2_175 [_756_ _684__bF$buf4] _1003_ d_lut_AND2X2
AOR2X2_116 [_1002_ _1003_] _1004_ d_lut_OR2X2
AOR2X2_117 [ULA_B_2_bF$buf1 _1004_] _1005_ d_lut_OR2X2
AAND2X2_176 [_1005_ _961_] _1006_ d_lut_AND2X2
AAND2X2_177 [_1006_ ULA_B_3_bF$buf2] _1007_ d_lut_AND2X2
AAND2X2_178 [_758_ ULA_B_1_bF$buf7] _1008_ d_lut_AND2X2
AAND2X2_179 [_765_ _684__bF$buf3] _1009_ d_lut_AND2X2
AOR2X2_118 [_1008_ _1009_] _1010_ d_lut_OR2X2