*SPICE netlist created from BLIF module NRISC_ULA by blif2BSpice
.include /usr/local/share/qflow/tech/osu018/osu018_stdcells.sp
.subckt NRISC_ULA vdd gnd ULA_A<0> ULA_A<1> ULA_A<2> ULA_A<3> ULA_A<4> ULA_A<5> ULA_A<6> ULA_A<7> ULA_A<8> ULA_A<9> ULA_A<10> ULA_A<11> ULA_A<12> ULA_A<13> ULA_A<14> ULA_A<15> ULA_A<16> ULA_A<17> ULA_A<18> ULA_A<19> ULA_A<20> ULA_A<21> ULA_A<22> ULA_A<23> ULA_A<24> ULA_A<25> ULA_A<26> ULA_A<27> ULA_A<28> ULA_A<29> ULA_A<30> ULA_A<31> ULA_B<0> ULA_B<1> ULA_B<2> ULA_B<3> ULA_B<4> ULA_B<5> ULA_B<6> ULA_B<7> ULA_B<8> ULA_B<9> ULA_B<10> ULA_B<11> ULA_B<12> ULA_B<13> ULA_B<14> ULA_B<15> ULA_B<16> ULA_B<17> ULA_B<18> ULA_B<19> ULA_B<20> ULA_B<21> ULA_B<22> ULA_B<23> ULA_B<24> ULA_B<25> ULA_B<26> ULA_B<27> ULA_B<28> ULA_B<29> ULA_B<30> ULA_B<31> ULA_ctrl<0> ULA_ctrl<1> ULA_ctrl<2> ULA_ctrl<3> clk ULA_OUT<0> ULA_OUT<1> ULA_OUT<2> ULA_OUT<3> ULA_OUT<4> ULA_OUT<5> ULA_OUT<6> ULA_OUT<7> ULA_OUT<8> ULA_OUT<9> ULA_OUT<10> ULA_OUT<11> ULA_OUT<12> ULA_OUT<13> ULA_OUT<14> ULA_OUT<15> ULA_OUT<16> ULA_OUT<17> ULA_OUT<18> ULA_OUT<19> ULA_OUT<20> ULA_OUT<21> ULA_OUT<22> ULA_OUT<23> ULA_OUT<24> ULA_OUT<25> ULA_OUT<26> ULA_OUT<27> ULA_OUT<28> ULA_OUT<29> ULA_OUT<30> ULA_OUT<31> ULA_flags<0> ULA_flags<1> ULA_flags<2> 
XAND2X2_1 vdd gnd _41_ _42_ _52_ AND2X2
XAND2X2_2 vdd gnd _94_ _42_ _639_ AND2X2
XAND2X2_3 vdd gnd _490__bF_buf1 _656_ _861_ AND2X2
XAND2X2_4 vdd gnd _340__bF_buf1 _665_ _862_ AND2X2
XAND2X2_5 vdd gnd _863_ _277__bF_buf1 _864_ AND2X2
XAND2X2_6 vdd gnd _490__bF_buf2 _667_ _865_ AND2X2
XAND2X2_7 vdd gnd _340__bF_buf1 _671_ _866_ AND2X2
XAND2X2_8 vdd gnd _867_ _458__bF_buf2 _868_ AND2X2
XAND2X2_9 vdd gnd _869_ _664__bF_buf0 _870_ AND2X2
XAND2X2_10 vdd gnd _871_ _447__bF_buf3 _872_ AND2X2
XAND2X2_11 vdd gnd _490__bF_buf0 _673_ _873_ AND2X2
XAND2X2_12 vdd gnd _340__bF_buf3 _500_ _874_ AND2X2
XAND2X2_13 vdd gnd _490__bF_buf4 _650_ _651_ AND2X2
XAND2X2_14 vdd gnd _875_ _277__bF_buf3 _876_ AND2X2
XAND2X2_15 vdd gnd _490__bF_buf0 _522_ _877_ AND2X2
XAND2X2_16 vdd gnd _340__bF_buf0 _554_ _878_ AND2X2
XAND2X2_17 vdd gnd _879_ _458__bF_buf1 _880_ AND2X2
XAND2X2_18 vdd gnd _881_ _244__bF_buf3 _882_ AND2X2
XAND2X2_19 vdd gnd _490__bF_buf0 _575_ _883_ AND2X2
XAND2X2_20 vdd gnd _340__bF_buf0 _383_ _884_ AND2X2
XAND2X2_21 vdd gnd _885_ _277__bF_buf3 _886_ AND2X2
XAND2X2_22 vdd gnd _490__bF_buf0 _372_ _887_ AND2X2
XAND2X2_23 vdd gnd _340__bF_buf3 _287_ _888_ AND2X2
XAND2X2_24 vdd gnd _340__bF_buf2 _652_ _653_ AND2X2
XAND2X2_25 vdd gnd _889_ _458__bF_buf1 _890_ AND2X2
XAND2X2_26 vdd gnd _891_ _664__bF_buf4 _892_ AND2X2
XAND2X2_27 vdd gnd _893_ _774_ _894_ AND2X2
XAND2X2_28 vdd gnd _575_ ULA_B_1_bF_buf4 _897_ AND2X2
XAND2X2_29 vdd gnd _383_ _684__bF_buf2 _898_ AND2X2
XAND2X2_30 vdd gnd _899_ ULA_B_2_bF_buf5 _900_ AND2X2
XAND2X2_31 vdd gnd _287_ _684__bF_buf4 _901_ AND2X2
XAND2X2_32 vdd gnd _372_ ULA_B_1_bF_buf4 _902_ AND2X2
XAND2X2_33 vdd gnd _903_ _255__bF_buf3 _904_ AND2X2
XAND2X2_34 vdd gnd _905_ _212__bF_buf1 _906_ AND2X2
XAND2X2_35 vdd gnd _654_ _277__bF_buf2 _655_ AND2X2
XAND2X2_36 vdd gnd _673_ ULA_B_1_bF_buf6 _907_ AND2X2
XAND2X2_37 vdd gnd _500_ _684__bF_buf2 _908_ AND2X2
XAND2X2_38 vdd gnd _909_ ULA_B_2_bF_buf5 _910_ AND2X2
XAND2X2_39 vdd gnd _522_ ULA_B_1_bF_buf4 _911_ AND2X2
XAND2X2_40 vdd gnd _554_ _684__bF_buf2 _912_ AND2X2
XAND2X2_41 vdd gnd _913_ _255__bF_buf2 _914_ AND2X2
XAND2X2_42 vdd gnd _915_ ULA_B_3_bF_buf0 _916_ AND2X2
XAND2X2_43 vdd gnd _919_ ULA_B_2_bF_buf6 _920_ AND2X2
XAND2X2_44 vdd gnd _652_ ULA_B_1_bF_buf2 _921_ AND2X2
XAND2X2_45 vdd gnd _658_ _684__bF_buf0 _922_ AND2X2
XAND2X2_46 vdd gnd _340__bF_buf1 _656_ _657_ AND2X2
XAND2X2_47 vdd gnd _923_ _255__bF_buf5 _924_ AND2X2
XAND2X2_48 vdd gnd _925_ ULA_B_3_bF_buf7 _926_ AND2X2
XAND2X2_49 vdd gnd _665_ _684__bF_buf2 _927_ AND2X2
XAND2X2_50 vdd gnd _656_ ULA_B_1_bF_buf4 _928_ AND2X2
XAND2X2_51 vdd gnd _929_ ULA_B_2_bF_buf5 _930_ AND2X2
XAND2X2_52 vdd gnd _667_ ULA_B_1_bF_buf6 _931_ AND2X2
XAND2X2_53 vdd gnd _671_ _684__bF_buf2 _932_ AND2X2
XAND2X2_54 vdd gnd _933_ _255__bF_buf2 _934_ AND2X2
XAND2X2_55 vdd gnd _935_ _212__bF_buf2 _936_ AND2X2
XAND2X2_56 vdd gnd _940_ _939_ _941_ AND2X2
XAND2X2_57 vdd gnd _490__bF_buf1 _658_ _659_ AND2X2
XAND2X2_58 vdd gnd _943_ ULA_B_1_bF_buf2 _944_ AND2X2
XAND2X2_59 vdd gnd _945_ _684__bF_buf1 _946_ AND2X2
XAND2X2_60 vdd gnd _950_ _942_ _951_ AND2X2
XAND2X2_61 vdd gnd _938_ _951_ _952_ AND2X2
XAND2X2_62 vdd gnd _952_ _918_ _953_ AND2X2
XAND2X2_63 vdd gnd _896_ _953_ _954_ AND2X2
XAND2X2_64 vdd gnd ULA_A<3> ULA_B_3_bF_buf6 _956_ AND2X2
XAND2X2_65 vdd gnd _490__bF_buf4 _752_ _962_ AND2X2
XAND2X2_66 vdd gnd _340__bF_buf2 _756_ _963_ AND2X2
XAND2X2_67 vdd gnd _965_ _961_ _966_ AND2X2
XAND2X2_68 vdd gnd _660_ _458__bF_buf0 _661_ AND2X2
XAND2X2_69 vdd gnd _966_ _244__bF_buf1 _967_ AND2X2
XAND2X2_70 vdd gnd _490__bF_buf1 _758_ _968_ AND2X2
XAND2X2_71 vdd gnd _340__bF_buf1 _765_ _969_ AND2X2
XAND2X2_72 vdd gnd _970_ _277__bF_buf1 _971_ AND2X2
XAND2X2_73 vdd gnd _490__bF_buf2 _764_ _972_ AND2X2
XAND2X2_74 vdd gnd _340__bF_buf4 _768_ _973_ AND2X2
XAND2X2_75 vdd gnd _974_ _458__bF_buf3 _975_ AND2X2
XAND2X2_76 vdd gnd _976_ _664__bF_buf1 _977_ AND2X2
XAND2X2_77 vdd gnd _978_ _447__bF_buf2 _979_ AND2X2
XAND2X2_78 vdd gnd _982_ _244__bF_buf0 _983_ AND2X2
XAND2X2_79 vdd gnd _662_ _244__bF_buf1 _663_ AND2X2
XAND2X2_80 vdd gnd _986_ _664__bF_buf3 _987_ AND2X2
XAND2X2_81 vdd gnd _988_ _774_ _989_ AND2X2
XAND2X2_82 vdd gnd _994_ ULA_B_3_bF_buf6 _995_ AND2X2
XAND2X2_83 vdd gnd _998_ _212__bF_buf4 _999_ AND2X2
XAND2X2_84 vdd gnd _752_ ULA_B_1_bF_buf2 _1002_ AND2X2
XAND2X2_85 vdd gnd _756_ _684__bF_buf0 _1003_ AND2X2
XAND2X2_86 vdd gnd _1005_ _961_ _1006_ AND2X2
XAND2X2_87 vdd gnd _1006_ ULA_B_3_bF_buf5 _1007_ AND2X2
XAND2X2_88 vdd gnd _758_ ULA_B_1_bF_buf0 _1008_ AND2X2
XAND2X2_89 vdd gnd _765_ _684__bF_buf0 _1009_ AND2X2
XAND2X2_90 vdd gnd _490__bF_buf1 _665_ _666_ AND2X2
XAND2X2_91 vdd gnd _1010_ ULA_B_2_bF_buf2 _1011_ AND2X2
XAND2X2_92 vdd gnd _764_ ULA_B_1_bF_buf2 _1012_ AND2X2
XAND2X2_93 vdd gnd _768_ _684__bF_buf0 _1013_ AND2X2
XAND2X2_94 vdd gnd _1014_ _255__bF_buf0 _1015_ AND2X2
XAND2X2_95 vdd gnd _1016_ _212__bF_buf4 _1017_ AND2X2
XAND2X2_96 vdd gnd _838_ ULA_B_1_bF_buf5 _1020_ AND2X2
XAND2X2_97 vdd gnd _1021_ _684__bF_buf1 _1022_ AND2X2
XAND2X2_98 vdd gnd _956_ ULA_ctrl_1_bF_buf4 _1026_ AND2X2
XAND2X2_99 vdd gnd _1028_ _1019_ _1029_ AND2X2
XAND2X2_100 vdd gnd _1029_ _1001_ _1030_ AND2X2
XAND2X2_101 vdd gnd _340__bF_buf1 _667_ _668_ AND2X2
XAND2X2_102 vdd gnd _991_ _1030_ _1031_ AND2X2
XAND2X2_103 vdd gnd _1037_ _458__bF_buf0 _1038_ AND2X2
XAND2X2_104 vdd gnd _660_ _277__bF_buf0 _1040_ AND2X2
XAND2X2_105 vdd gnd _669_ _458__bF_buf3 _1041_ AND2X2
XAND2X2_106 vdd gnd _1042_ _664__bF_buf0 _1043_ AND2X2
XAND2X2_107 vdd gnd _1044_ _447__bF_buf0 _1045_ AND2X2
XAND2X2_108 vdd gnd _675_ _277__bF_buf1 _1046_ AND2X2
XAND2X2_109 vdd gnd _543_ _458__bF_buf2 _1047_ AND2X2
XAND2X2_110 vdd gnd _1048_ _244__bF_buf3 _1049_ AND2X2
XAND2X2_111 vdd gnd _1051_ _664__bF_buf4 _1052_ AND2X2
XAND2X2_112 vdd gnd _319_ ULA_ctrl_0_bF_buf0 _330_ AND2X2
XAND2X2_113 vdd gnd _669_ _277__bF_buf1 _670_ AND2X2
XAND2X2_114 vdd gnd _1053_ _774_ _1054_ AND2X2
XAND2X2_115 vdd gnd _1057_ ULA_B_3_bF_buf4 _1058_ AND2X2
XAND2X2_116 vdd gnd _713_ ULA_B_2_bF_buf4 _1059_ AND2X2
XAND2X2_117 vdd gnd _719_ _255__bF_buf5 _1060_ AND2X2
XAND2X2_118 vdd gnd _1061_ _212__bF_buf2 _1062_ AND2X2
XAND2X2_119 vdd gnd _723_ ULA_B_2_bF_buf5 _1066_ AND2X2
XAND2X2_120 vdd gnd _696_ _255__bF_buf2 _1067_ AND2X2
XAND2X2_121 vdd gnd _1074_ _684__bF_buf1 _1075_ AND2X2
XAND2X2_122 vdd gnd _945_ ULA_B_1_bF_buf5 _1076_ AND2X2
XAND2X2_123 vdd gnd _1077_ _255__bF_buf5 _1078_ AND2X2
XAND2X2_124 vdd gnd _490__bF_buf0 _671_ _672_ AND2X2
XAND2X2_125 vdd gnd _1083_ _1082_ _1084_ AND2X2
XAND2X2_126 vdd gnd _1081_ _1085_ _1086_ AND2X2
XAND2X2_127 vdd gnd _1072_ _1086_ _1087_ AND2X2
XAND2X2_128 vdd gnd _1087_ _1064_ _1088_ AND2X2
XAND2X2_129 vdd gnd _1056_ _1088_ _1089_ AND2X2
XAND2X2_130 vdd gnd _1095_ _244__bF_buf1 _1096_ AND2X2
XAND2X2_131 vdd gnd _760_ _277__bF_buf0 _1097_ AND2X2
XAND2X2_132 vdd gnd _490__bF_buf2 _765_ _1098_ AND2X2
XAND2X2_133 vdd gnd _340__bF_buf2 _764_ _1099_ AND2X2
XAND2X2_134 vdd gnd _1100_ _458__bF_buf0 _1101_ AND2X2
XAND2X2_135 vdd gnd _340__bF_buf0 _673_ _674_ AND2X2
XAND2X2_136 vdd gnd _1102_ _664__bF_buf1 _1103_ AND2X2
XAND2X2_137 vdd gnd _1104_ _447__bF_buf2 _1105_ AND2X2
XAND2X2_138 vdd gnd _1107_ _664__bF_buf3 _1108_ AND2X2
XAND2X2_139 vdd gnd _490__bF_buf3 _768_ _1109_ AND2X2
XAND2X2_140 vdd gnd _340__bF_buf5 _767_ _1110_ AND2X2
XAND2X2_141 vdd gnd _1111_ _277__bF_buf4 _1112_ AND2X2
XAND2X2_142 vdd gnd _779_ _458__bF_buf2 _1113_ AND2X2
XAND2X2_143 vdd gnd _1114_ _244__bF_buf0 _1115_ AND2X2
XAND2X2_144 vdd gnd _1116_ _774_ _1117_ AND2X2
XAND2X2_145 vdd gnd _1121_ _1120_ _1122_ AND2X2
XAND2X2_146 vdd gnd _675_ _458__bF_buf2 _676_ AND2X2
XAND2X2_147 vdd gnd _831_ ULA_B_2_bF_buf2 _1123_ AND2X2
XAND2X2_148 vdd gnd _807_ _255__bF_buf0 _1124_ AND2X2
XAND2X2_149 vdd gnd _1128_ ULA_B_3_bF_buf3 _1129_ AND2X2
XAND2X2_150 vdd gnd _824_ ULA_B_2_bF_buf2 _1130_ AND2X2
XAND2X2_151 vdd gnd _828_ _255__bF_buf0 _1131_ AND2X2
XAND2X2_152 vdd gnd _1132_ _212__bF_buf1 _1133_ AND2X2
XAND2X2_153 vdd gnd _839_ ULA_B_2_bF_buf0 _1136_ AND2X2
XAND2X2_154 vdd gnd _1021_ ULA_B_1_bF_buf5 _1137_ AND2X2
XAND2X2_155 vdd gnd _1138_ _684__bF_buf1 _1139_ AND2X2
XAND2X2_156 vdd gnd _1140_ _255__bF_buf6 _1141_ AND2X2
XAND2X2_157 vdd gnd _677_ _664__bF_buf2 _678_ AND2X2
XAND2X2_158 vdd gnd _1146_ _1145_ _1147_ AND2X2
XAND2X2_159 vdd gnd _1144_ _1148_ _1149_ AND2X2
XAND2X2_160 vdd gnd _1135_ _1149_ _1150_ AND2X2
XAND2X2_161 vdd gnd _1127_ _1150_ _1151_ AND2X2
XAND2X2_162 vdd gnd _1119_ _1151_ _1152_ AND2X2
XAND2X2_163 vdd gnd _857_ _277__bF_buf0 _1158_ AND2X2
XAND2X2_164 vdd gnd _863_ _458__bF_buf3 _1159_ AND2X2
XAND2X2_165 vdd gnd _1160_ _664__bF_buf1 _1161_ AND2X2
XAND2X2_166 vdd gnd _1162_ _244__bF_buf1 _1163_ AND2X2
XAND2X2_167 vdd gnd _1164_ _447__bF_buf0 _1165_ AND2X2
XAND2X2_168 vdd gnd _680_ _649_ _681_ AND2X2
XAND2X2_169 vdd gnd _1167_ _664__bF_buf4 _1168_ AND2X2
XAND2X2_170 vdd gnd _1168_ _1166_ _1169_ AND2X2
XAND2X2_171 vdd gnd _867_ _277__bF_buf3 _1170_ AND2X2
XAND2X2_172 vdd gnd _875_ _458__bF_buf1 _1171_ AND2X2
XAND2X2_173 vdd gnd _1172_ _244__bF_buf3 _1173_ AND2X2
XAND2X2_174 vdd gnd _1174_ _774_ _1175_ AND2X2
XAND2X2_175 vdd gnd _1178_ ULA_B_3_bF_buf7 _1179_ AND2X2
XAND2X2_176 vdd gnd _923_ ULA_B_2_bF_buf6 _1180_ AND2X2
XAND2X2_177 vdd gnd _929_ _255__bF_buf2 _1181_ AND2X2
XAND2X2_178 vdd gnd _1182_ _212__bF_buf2 _1183_ AND2X2
XAND2X2_179 vdd gnd _383_ ULA_B_1_bF_buf4 _683_ AND2X2
XAND2X2_180 vdd gnd _933_ ULA_B_2_bF_buf5 _1186_ AND2X2
XAND2X2_181 vdd gnd _909_ _255__bF_buf2 _1187_ AND2X2
XAND2X2_182 vdd gnd _1188_ ULA_B_3_bF_buf0 _1189_ AND2X2
XAND2X2_183 vdd gnd _899_ _255__bF_buf3 _1190_ AND2X2
XAND2X2_184 vdd gnd _913_ ULA_B_2_bF_buf5 _1191_ AND2X2
XAND2X2_185 vdd gnd _1192_ _212__bF_buf1 _1193_ AND2X2
XAND2X2_186 vdd gnd _1196_ _684__bF_buf1 _1197_ AND2X2
XAND2X2_187 vdd gnd _1074_ ULA_B_1_bF_buf5 _1198_ AND2X2
XAND2X2_188 vdd gnd _1199_ _255__bF_buf5 _1200_ AND2X2
XAND2X2_189 vdd gnd _947_ ULA_B_2_bF_buf6 _1201_ AND2X2
XAND2X2_190 vdd gnd _372_ _684__bF_buf4 _685_ AND2X2
XAND2X2_191 vdd gnd _1206_ _1205_ _1207_ AND2X2
XAND2X2_192 vdd gnd _1204_ _1208_ _1209_ AND2X2
XAND2X2_193 vdd gnd _1195_ _1209_ _1210_ AND2X2
XAND2X2_194 vdd gnd _1210_ _1185_ _1211_ AND2X2
XAND2X2_195 vdd gnd _1177_ _1211_ _1212_ AND2X2
XAND2X2_196 vdd gnd _964_ _277__bF_buf0 _1220_ AND2X2
XAND2X2_197 vdd gnd _970_ _458__bF_buf0 _1221_ AND2X2
XAND2X2_198 vdd gnd _1222_ _664__bF_buf1 _1223_ AND2X2
XAND2X2_199 vdd gnd _1224_ _447__bF_buf2 _1225_ AND2X2
XAND2X2_200 vdd gnd _974_ _277__bF_buf1 _1226_ AND2X2
XAND2X2_201 vdd gnd _686_ ULA_B_2_bF_buf2 _687_ AND2X2
XAND2X2_202 vdd gnd _490__bF_buf2 _767_ _1227_ AND2X2
XAND2X2_203 vdd gnd _340__bF_buf4 _775_ _1228_ AND2X2
XAND2X2_204 vdd gnd _1229_ _458__bF_buf3 _1230_ AND2X2
XAND2X2_205 vdd gnd _1231_ _244__bF_buf3 _1232_ AND2X2
XAND2X2_206 vdd gnd _490__bF_buf3 _777_ _1233_ AND2X2
XAND2X2_207 vdd gnd _340__bF_buf0 _781_ _1234_ AND2X2
XAND2X2_208 vdd gnd _490__bF_buf3 _783_ _1237_ AND2X2
XAND2X2_209 vdd gnd _340__bF_buf5 _793_ _1238_ AND2X2
XAND2X2_210 vdd gnd _1240_ _664__bF_buf4 _1241_ AND2X2
XAND2X2_211 vdd gnd _1241_ _1236_ _1242_ AND2X2
XAND2X2_212 vdd gnd _351_ _684__bF_buf4 _688_ AND2X2
XAND2X2_213 vdd gnd _1243_ _774_ _1244_ AND2X2
XAND2X2_214 vdd gnd _1004_ ULA_B_2_bF_buf4 _1247_ AND2X2
XAND2X2_215 vdd gnd _1010_ _255__bF_buf0 _1248_ AND2X2
XAND2X2_216 vdd gnd _1250_ _1251_ _1252_ AND2X2
XAND2X2_217 vdd gnd _1014_ ULA_B_2_bF_buf2 _1254_ AND2X2
XAND2X2_218 vdd gnd _767_ ULA_B_1_bF_buf7 _1255_ AND2X2
XAND2X2_219 vdd gnd _775_ _684__bF_buf4 _1256_ AND2X2
XAND2X2_220 vdd gnd _1257_ _255__bF_buf3 _1258_ AND2X2
XAND2X2_221 vdd gnd _1259_ ULA_B_3_bF_buf6 _1260_ AND2X2
XAND2X2_222 vdd gnd _783_ ULA_B_1_bF_buf4 _1261_ AND2X2
XAND2X2_223 vdd gnd _426_ ULA_ctrl_0_bF_buf3 _436_ AND2X2
XAND2X2_224 vdd gnd _287_ ULA_B_1_bF_buf4 _689_ AND2X2
XAND2X2_225 vdd gnd _793_ _684__bF_buf4 _1262_ AND2X2
XAND2X2_226 vdd gnd _1263_ _255__bF_buf3 _1264_ AND2X2
XAND2X2_227 vdd gnd _777_ ULA_B_1_bF_buf7 _1265_ AND2X2
XAND2X2_228 vdd gnd _781_ _684__bF_buf4 _1266_ AND2X2
XAND2X2_229 vdd gnd _1267_ ULA_B_2_bF_buf3 _1268_ AND2X2
XAND2X2_230 vdd gnd _1269_ _212__bF_buf4 _1270_ AND2X2
XAND2X2_231 vdd gnd _1023_ ULA_B_2_bF_buf0 _1273_ AND2X2
XAND2X2_232 vdd gnd _1138_ ULA_B_1_bF_buf6 _1274_ AND2X2
XAND2X2_233 vdd gnd _1275_ _684__bF_buf6 _1276_ AND2X2
XAND2X2_234 vdd gnd _1277_ _255__bF_buf6 _1278_ AND2X2
XAND2X2_235 vdd gnd _690_ _255__bF_buf3 _691_ AND2X2
XAND2X2_236 vdd gnd _1283_ _1282_ _1284_ AND2X2
XAND2X2_237 vdd gnd _1281_ _1285_ _1286_ AND2X2
XAND2X2_238 vdd gnd _1272_ _1286_ _1287_ AND2X2
XAND2X2_239 vdd gnd _1287_ _1253_ _1288_ AND2X2
XAND2X2_240 vdd gnd _1246_ _1288_ _1289_ AND2X2
XAND2X2_241 vdd gnd _677_ _244__bF_buf2 _1293_ AND2X2
XAND2X2_242 vdd gnd _543_ _277__bF_buf3 _1294_ AND2X2
XAND2X2_243 vdd gnd _596_ _458__bF_buf2 _1295_ AND2X2
XAND2X2_244 vdd gnd _1296_ _664__bF_buf3 _1297_ AND2X2
XAND2X2_245 vdd gnd _1299_ _1292_ _1300_ AND2X2
XAND2X2_246 vdd gnd _692_ _212__bF_buf1 _693_ AND2X2
XAND2X2_247 vdd gnd _725_ ULA_B_3_bF_buf3 _1302_ AND2X2
XAND2X2_248 vdd gnd _702_ _212__bF_buf2 _1303_ AND2X2
XAND2X2_249 vdd gnd _1306_ _684__bF_buf1 _1307_ AND2X2
XAND2X2_250 vdd gnd _1196_ ULA_B_1_bF_buf6 _1308_ AND2X2
XAND2X2_251 vdd gnd _1309_ _255__bF_buf5 _1310_ AND2X2
XAND2X2_252 vdd gnd _1077_ ULA_B_2_bF_buf0 _1311_ AND2X2
XAND2X2_253 vdd gnd _1313_ _1314_ _1315_ AND2X2
XAND2X2_254 vdd gnd _1320_ _1319_ _1321_ AND2X2
XAND2X2_255 vdd gnd _1318_ _1322_ _1323_ AND2X2
XAND2X2_256 vdd gnd _1316_ _1323_ _1324_ AND2X2
XAND2X2_257 vdd gnd _500_ ULA_B_1_bF_buf6 _694_ AND2X2
XAND2X2_258 vdd gnd _1324_ _1305_ _1325_ AND2X2
XAND2X2_259 vdd gnd _1301_ _1325_ _1326_ AND2X2
XAND2X2_260 vdd gnd _770_ _244__bF_buf2 _1333_ AND2X2
XAND2X2_261 vdd gnd _787_ _664__bF_buf3 _1334_ AND2X2
XAND2X2_262 vdd gnd _1336_ _1332_ _1337_ AND2X2
XAND2X2_263 vdd gnd _813_ _212__bF_buf4 _1342_ AND2X2
XAND2X2_264 vdd gnd _840_ ULA_B_3_bF_buf7 _1345_ AND2X2
XAND2X2_265 vdd gnd _1140_ ULA_B_2_bF_buf0 _1346_ AND2X2
XAND2X2_266 vdd gnd _1275_ ULA_B_1_bF_buf1 _1347_ AND2X2
XAND2X2_267 vdd gnd _1348_ _684__bF_buf3 _1349_ AND2X2
XAND2X2_268 vdd gnd _522_ _684__bF_buf2 _695_ AND2X2
XAND2X2_269 vdd gnd _1350_ _255__bF_buf6 _1351_ AND2X2
XAND2X2_270 vdd gnd _1352_ _212__bF_buf0 _1353_ AND2X2
XAND2X2_271 vdd gnd _821_ ULA_B_2_bF_buf4 _1356_ AND2X2
XAND2X2_272 vdd gnd _824_ _255__bF_buf0 _1357_ AND2X2
XAND2X2_273 vdd gnd _1362_ _1361_ _1363_ AND2X2
XAND2X2_274 vdd gnd _1360_ _1364_ _1365_ AND2X2
XAND2X2_275 vdd gnd _1365_ _1355_ _1366_ AND2X2
XAND2X2_276 vdd gnd _1366_ _1344_ _1367_ AND2X2
XAND2X2_277 vdd gnd _1338_ _1367_ _1368_ AND2X2
XAND2X2_278 vdd gnd _869_ _244__bF_buf2 _1375_ AND2X2
XAND2X2_279 vdd gnd _696_ ULA_B_2_bF_buf5 _697_ AND2X2
XAND2X2_280 vdd gnd _881_ _664__bF_buf0 _1376_ AND2X2
XAND2X2_281 vdd gnd _1378_ _1374_ _1379_ AND2X2
XAND2X2_282 vdd gnd _935_ ULA_B_3_bF_buf0 _1381_ AND2X2
XAND2X2_283 vdd gnd _915_ _212__bF_buf2 _1382_ AND2X2
XAND2X2_284 vdd gnd _1386_ _684__bF_buf1 _1387_ AND2X2
XAND2X2_285 vdd gnd _1306_ ULA_B_1_bF_buf6 _1388_ AND2X2
XAND2X2_286 vdd gnd _1389_ _255__bF_buf5 _1390_ AND2X2
XAND2X2_287 vdd gnd _1199_ ULA_B_2_bF_buf6 _1391_ AND2X2
XAND2X2_288 vdd gnd _1393_ _1385_ _1394_ AND2X2
XAND2X2_289 vdd gnd _1399_ _1398_ _1400_ AND2X2
XAND2X2_290 vdd gnd _554_ ULA_B_1_bF_buf4 _698_ AND2X2
XAND2X2_291 vdd gnd _1397_ _1401_ _1402_ AND2X2
XAND2X2_292 vdd gnd _1395_ _1402_ _1403_ AND2X2
XAND2X2_293 vdd gnd _1403_ _1384_ _1404_ AND2X2
XAND2X2_294 vdd gnd _1380_ _1404_ _1405_ AND2X2
XAND2X2_295 vdd gnd _976_ _244__bF_buf0 _1412_ AND2X2
XAND2X2_296 vdd gnd _982_ _664__bF_buf3 _1413_ AND2X2
XAND2X2_297 vdd gnd _1415_ _1411_ _1416_ AND2X2
XAND2X2_298 vdd gnd _1418_ ULA_B_3_bF_buf2 _1419_ AND2X2
XAND2X2_299 vdd gnd _1277_ ULA_B_2_bF_buf1 _1420_ AND2X2
XAND2X2_300 vdd gnd _1348_ ULA_B_1_bF_buf1 _1421_ AND2X2
XAND2X2_301 vdd gnd _575_ _684__bF_buf2 _699_ AND2X2
XAND2X2_302 vdd gnd _1422_ _684__bF_buf3 _1423_ AND2X2
XAND2X2_303 vdd gnd _1424_ _255__bF_buf4 _1425_ AND2X2
XAND2X2_304 vdd gnd _1426_ _212__bF_buf3 _1427_ AND2X2
XAND2X2_305 vdd gnd _1016_ ULA_B_3_bF_buf6 _1430_ AND2X2
XAND2X2_306 vdd gnd _994_ _212__bF_buf4 _1431_ AND2X2
XAND2X2_307 vdd gnd _1437_ _1436_ _1438_ AND2X2
XAND2X2_308 vdd gnd _1435_ _1439_ _1440_ AND2X2
XAND2X2_309 vdd gnd _1433_ _1440_ _1441_ AND2X2
XAND2X2_310 vdd gnd _1441_ _1429_ _1442_ AND2X2
XAND2X2_311 vdd gnd _1417_ _1442_ _1443_ AND2X2
XAND2X2_312 vdd gnd _700_ _255__bF_buf3 _701_ AND2X2
XAND2X2_313 vdd gnd _1042_ _244__bF_buf3 _1454_ AND2X2
XAND2X2_314 vdd gnd _1048_ _664__bF_buf0 _1455_ AND2X2
XAND2X2_315 vdd gnd _1457_ _1453_ _1458_ AND2X2
XAND2X2_316 vdd gnd _1460_ _684__bF_buf6 _1461_ AND2X2
XAND2X2_317 vdd gnd _1386_ ULA_B_1_bF_buf6 _1462_ AND2X2
XAND2X2_318 vdd gnd _1463_ _255__bF_buf2 _1464_ AND2X2
XAND2X2_319 vdd gnd _1309_ ULA_B_2_bF_buf0 _1465_ AND2X2
XAND2X2_320 vdd gnd _1466_ _212__bF_buf0 _1467_ AND2X2
XAND2X2_321 vdd gnd _1079_ ULA_B_3_bF_buf4 _1468_ AND2X2
XAND2X2_322 vdd gnd _1068_ _212__bF_buf1 _1471_ AND2X2
XAND2X2_323 vdd gnd _702_ ULA_B_3_bF_buf3 _703_ AND2X2
XAND2X2_324 vdd gnd _1061_ ULA_B_3_bF_buf3 _1472_ AND2X2
XAND2X2_325 vdd gnd _3_ _2_ _4_ AND2X2
XAND2X2_326 vdd gnd _1_ _5_ _6_ AND2X2
XAND2X2_327 vdd gnd _1474_ _6_ _7_ AND2X2
XAND2X2_328 vdd gnd _7_ _1470_ _8_ AND2X2
XAND2X2_329 vdd gnd _1459_ _8_ _9_ AND2X2
XAND2X2_330 vdd gnd _1102_ _244__bF_buf1 _16_ AND2X2
XAND2X2_331 vdd gnd _1114_ _664__bF_buf2 _17_ AND2X2
XAND2X2_332 vdd gnd _19_ _15_ _20_ AND2X2
XAND2X2_333 vdd gnd _22_ _23_ _24_ AND2X2
XAND2X2_334 vdd gnd _479_ _298_ _490_ AND2X2
XAND2X2_335 vdd gnd _652_ _684__bF_buf1 _707_ AND2X2
XAND2X2_336 vdd gnd _1142_ ULA_B_3_bF_buf1 _26_ AND2X2
XAND2X2_337 vdd gnd _1350_ ULA_B_2_bF_buf1 _27_ AND2X2
XAND2X2_338 vdd gnd _1422_ ULA_B_1_bF_buf1 _28_ AND2X2
XAND2X2_339 vdd gnd _29_ _684__bF_buf3 _31_ AND2X2
XAND2X2_340 vdd gnd _32_ _255__bF_buf4 _33_ AND2X2
XAND2X2_341 vdd gnd _34_ _212__bF_buf5 _35_ AND2X2
XAND2X2_342 vdd gnd _43_ ULA_ctrl<2> _44_ AND2X2
XAND2X2_343 vdd gnd _39_ _45_ _46_ AND2X2
XAND2X2_344 vdd gnd _37_ _46_ _47_ AND2X2
XAND2X2_345 vdd gnd _47_ _25_ _48_ AND2X2
XAND2X2_346 vdd gnd _650_ ULA_B_1_bF_buf5 _708_ AND2X2
XAND2X2_347 vdd gnd _21_ _48_ _49_ AND2X2
XAND2X2_348 vdd gnd _1160_ _244__bF_buf2 _57_ AND2X2
XAND2X2_349 vdd gnd _1172_ _664__bF_buf4 _58_ AND2X2
XAND2X2_350 vdd gnd _60_ _56_ _61_ AND2X2
XAND2X2_351 vdd gnd _64_ _65_ _66_ AND2X2
XAND2X2_352 vdd gnd _68_ _684__bF_buf6 _69_ AND2X2
XAND2X2_353 vdd gnd _1460_ ULA_B_1_bF_buf3 _70_ AND2X2
XAND2X2_354 vdd gnd _71_ _255__bF_buf6 _72_ AND2X2
XAND2X2_355 vdd gnd _1389_ ULA_B_2_bF_buf0 _73_ AND2X2
XAND2X2_356 vdd gnd _75_ _212__bF_buf0 _76_ AND2X2
XAND2X2_357 vdd gnd _709_ ULA_B_2_bF_buf6 _710_ AND2X2
XAND2X2_358 vdd gnd _1202_ ULA_B_3_bF_buf4 _77_ AND2X2
XAND2X2_359 vdd gnd _83_ _82_ _84_ AND2X2
XAND2X2_360 vdd gnd _81_ _85_ _86_ AND2X2
XAND2X2_361 vdd gnd _79_ _86_ _87_ AND2X2
XAND2X2_362 vdd gnd _87_ _67_ _88_ AND2X2
XAND2X2_363 vdd gnd _62_ _88_ _89_ AND2X2
XAND2X2_364 vdd gnd _1222_ _244__bF_buf0 _97_ AND2X2
XAND2X2_365 vdd gnd _1231_ _664__bF_buf3 _98_ AND2X2
XAND2X2_366 vdd gnd _1279_ ULA_B_3_bF_buf1 _104_ AND2X2
XAND2X2_367 vdd gnd _1424_ ULA_B_2_bF_buf1 _107_ AND2X2
XAND2X2_368 vdd gnd _658_ ULA_B_1_bF_buf2 _711_ AND2X2
XAND2X2_369 vdd gnd _29_ ULA_B_1_bF_buf3 _108_ AND2X2
XAND2X2_370 vdd gnd _109_ _684__bF_buf5 _110_ AND2X2
XAND2X2_371 vdd gnd _111_ _255__bF_buf1 _112_ AND2X2
XAND2X2_372 vdd gnd _113_ _212__bF_buf5 _114_ AND2X2
XAND2X2_373 vdd gnd _117_ _118_ _119_ AND2X2
XAND2X2_374 vdd gnd _122_ _729_ _123_ AND2X2
XAND2X2_375 vdd gnd _124_ _120_ _125_ AND2X2
XAND2X2_376 vdd gnd _125_ _116_ _126_ AND2X2
XAND2X2_377 vdd gnd _103_ _126_ _128_ AND2X2
XAND2X2_378 vdd gnd _128_ _100_ _129_ AND2X2
XAND2X2_379 vdd gnd _656_ _684__bF_buf0 _712_ AND2X2
XAND2X2_380 vdd gnd _140_ _133_ _141_ AND2X2
XAND2X2_381 vdd gnd _145_ _212__bF_buf0 _146_ AND2X2
XAND2X2_382 vdd gnd _1312_ ULA_B_3_bF_buf7 _147_ AND2X2
XAND2X2_383 vdd gnd _150_ _151_ _152_ AND2X2
XAND2X2_384 vdd gnd _153_ _141_ _154_ AND2X2
XAND2X2_385 vdd gnd _154_ _132_ _155_ AND2X2
XAND2X2_386 vdd gnd _109_ ULA_B_1_bF_buf3 _161_ AND2X2
XAND2X2_387 vdd gnd _162_ _684__bF_buf3 _163_ AND2X2
XAND2X2_388 vdd gnd _166_ _728_ _167_ AND2X2
XAND2X2_389 vdd gnd _172_ _177_ _178_ AND2X2
XAND2X2_390 vdd gnd _713_ _255__bF_buf5 _714_ AND2X2
XAND2X2_391 vdd gnd _178_ _171_ _179_ AND2X2
XAND2X2_392 vdd gnd _179_ _170_ _182_ AND2X2
XAND2X2_393 vdd gnd _193_ _188_ _194_ AND2X2
XAND2X2_394 vdd gnd _198_ _212__bF_buf0 _199_ AND2X2
XAND2X2_395 vdd gnd _1392_ ULA_B_3_bF_buf7 _200_ AND2X2
XAND2X2_396 vdd gnd _202_ _728_ _203_ AND2X2
XAND2X2_397 vdd gnd _206_ _194_ _207_ AND2X2
XAND2X2_398 vdd gnd _207_ _187_ _208_ AND2X2
XAND2X2_399 vdd gnd _1426_ ULA_B_3_bF_buf2 _215_ AND2X2
XAND2X2_400 vdd gnd _111_ ULA_B_2_bF_buf7 _216_ AND2X2
XAND2X2_401 vdd gnd _715_ ULA_B_3_bF_buf3 _716_ AND2X2
XAND2X2_402 vdd gnd _162_ ULA_B_1_bF_buf1 _217_ AND2X2
XAND2X2_403 vdd gnd _218_ _684__bF_buf3 _219_ AND2X2
XAND2X2_404 vdd gnd _220_ _255__bF_buf1 _221_ AND2X2
XAND2X2_405 vdd gnd _222_ _212__bF_buf3 _224_ AND2X2
XAND2X2_406 vdd gnd _225_ _728_ _226_ AND2X2
XAND2X2_407 vdd gnd _232_ _231_ _233_ AND2X2
XAND2X2_408 vdd gnd _230_ _235_ _236_ AND2X2
XAND2X2_409 vdd gnd _229_ _236_ _237_ AND2X2
XAND2X2_410 vdd gnd _237_ _228_ _238_ AND2X2
XAND2X2_411 vdd gnd _1466_ ULA_B_3_bF_buf1 _246_ AND2X2
XAND2X2_412 vdd gnd _665_ ULA_B_1_bF_buf4 _717_ AND2X2
XAND2X2_413 vdd gnd _247_ _684__bF_buf3 _248_ AND2X2
XAND2X2_414 vdd gnd _196_ ULA_B_1_bF_buf1 _249_ AND2X2
XAND2X2_415 vdd gnd _250_ _255__bF_buf1 _251_ AND2X2
XAND2X2_416 vdd gnd _143_ _684__bF_buf6 _252_ AND2X2
XAND2X2_417 vdd gnd _68_ ULA_B_1_bF_buf3 _253_ AND2X2
XAND2X2_418 vdd gnd _254_ ULA_B_2_bF_buf7 _256_ AND2X2
XAND2X2_419 vdd gnd _257_ _212__bF_buf5 _258_ AND2X2
XAND2X2_420 vdd gnd _259_ _728_ _260_ AND2X2
XAND2X2_421 vdd gnd _1080_ ULA_B_4_bF_buf2 _261_ AND2X2
XAND2X2_422 vdd gnd _267_ _265_ _268_ AND2X2
XAND2X2_423 vdd gnd _667_ _684__bF_buf2 _718_ AND2X2
XAND2X2_424 vdd gnd _264_ _269_ _270_ AND2X2
XAND2X2_425 vdd gnd _263_ _270_ _271_ AND2X2
XAND2X2_426 vdd gnd _271_ _245_ _272_ AND2X2
XAND2X2_427 vdd gnd ULA_A<21> ULA_B<21> _282_ AND2X2
XAND2X2_428 vdd gnd _280_ _284_ _285_ AND2X2
XAND2X2_429 vdd gnd _164_ ULA_B_2_bF_buf7 _286_ AND2X2
XAND2X2_430 vdd gnd _218_ ULA_B_1_bF_buf1 _288_ AND2X2
XAND2X2_431 vdd gnd _289_ _684__bF_buf3 _290_ AND2X2
XAND2X2_432 vdd gnd _291_ _255__bF_buf1 _292_ AND2X2
XAND2X2_433 vdd gnd _293_ _212__bF_buf5 _294_ AND2X2
XAND2X2_434 vdd gnd _719_ ULA_B_2_bF_buf4 _720_ AND2X2
XAND2X2_435 vdd gnd _34_ ULA_B_3_bF_buf1 _295_ AND2X2
XAND2X2_436 vdd gnd _296_ _728_ _297_ AND2X2
XAND2X2_437 vdd gnd _1143_ ULA_B_4_bF_buf2 _299_ AND2X2
XAND2X2_438 vdd gnd _301_ _285_ _302_ AND2X2
XAND2X2_439 vdd gnd _302_ _279_ _303_ AND2X2
XAND2X2_440 vdd gnd _304_ _305_ _306_ AND2X2
XAND2X2_441 vdd gnd _315_ _310_ _316_ AND2X2
XAND2X2_442 vdd gnd _317_ _684__bF_buf6 _318_ AND2X2
XAND2X2_443 vdd gnd _247_ ULA_B_1_bF_buf1 _320_ AND2X2
XAND2X2_444 vdd gnd _321_ _255__bF_buf6 _322_ AND2X2
XAND2X2_445 vdd gnd _490__bF_buf1 _500_ _511_ AND2X2
XAND2X2_446 vdd gnd _671_ ULA_B_1_bF_buf6 _721_ AND2X2
XAND2X2_447 vdd gnd _196_ _684__bF_buf3 _323_ AND2X2
XAND2X2_448 vdd gnd _143_ ULA_B_1_bF_buf1 _324_ AND2X2
XAND2X2_449 vdd gnd _325_ ULA_B_2_bF_buf7 _326_ AND2X2
XAND2X2_450 vdd gnd _1203_ ULA_B_4_bF_buf1 _331_ AND2X2
XAND2X2_451 vdd gnd _333_ _316_ _334_ AND2X2
XAND2X2_452 vdd gnd _334_ _309_ _335_ AND2X2
XAND2X2_453 vdd gnd _344_ _343_ _345_ AND2X2
XAND2X2_454 vdd gnd _342_ _346_ _347_ AND2X2
XAND2X2_455 vdd gnd _220_ ULA_B_2_bF_buf7 _348_ AND2X2
XAND2X2_456 vdd gnd _289_ ULA_B_1_bF_buf1 _349_ AND2X2
XAND2X2_457 vdd gnd _673_ _684__bF_buf2 _722_ AND2X2
XAND2X2_458 vdd gnd _350_ _684__bF_buf3 _352_ AND2X2
XAND2X2_459 vdd gnd _353_ _255__bF_buf1 _354_ AND2X2
XAND2X2_460 vdd gnd _355_ _212__bF_buf5 _356_ AND2X2
XAND2X2_461 vdd gnd _113_ ULA_B_3_bF_buf2 _357_ AND2X2
XAND2X2_462 vdd gnd _358_ _728_ _359_ AND2X2
XAND2X2_463 vdd gnd _1280_ ULA_B_4_bF_buf0 _360_ AND2X2
XAND2X2_464 vdd gnd _363_ _347_ _364_ AND2X2
XAND2X2_465 vdd gnd _364_ _341_ _365_ AND2X2
XAND2X2_466 vdd gnd _380_ _379_ _381_ AND2X2
XAND2X2_467 vdd gnd _378_ _382_ _384_ AND2X2
XAND2X2_468 vdd gnd _723_ _255__bF_buf2 _724_ AND2X2
XAND2X2_469 vdd gnd _384_ _377_ _385_ AND2X2
XAND2X2_470 vdd gnd _145_ ULA_B_3_bF_buf2 _386_ AND2X2
XAND2X2_471 vdd gnd _317_ ULA_B_1_bF_buf3 _387_ AND2X2
XAND2X2_472 vdd gnd _388_ _684__bF_buf5 _389_ AND2X2
XAND2X2_473 vdd gnd _392_ _212__bF_buf3 _393_ AND2X2
XAND2X2_474 vdd gnd _393_ _391_ _395_ AND2X2
XAND2X2_475 vdd gnd _397_ _399_ _400_ AND2X2
XAND2X2_476 vdd gnd _400_ _385_ _401_ AND2X2
XAND2X2_477 vdd gnd _411_ ULA_ctrl<2> _412_ AND2X2
XAND2X2_478 vdd gnd _409_ _413_ _414_ AND2X2
XAND2X2_479 vdd gnd _725_ _212__bF_buf2 _726_ AND2X2
XAND2X2_480 vdd gnd _414_ _408_ _416_ AND2X2
XAND2X2_481 vdd gnd _350_ ULA_B_1_bF_buf3 _421_ AND2X2
XAND2X2_482 vdd gnd _422_ _684__bF_buf5 _423_ AND2X2
XAND2X2_483 vdd gnd _424_ _255__bF_buf4 _425_ AND2X2
XAND2X2_484 vdd gnd _291_ ULA_B_2_bF_buf7 _427_ AND2X2
XAND2X2_485 vdd gnd _428_ _212__bF_buf3 _429_ AND2X2
XAND2X2_486 vdd gnd _431_ _417_ _432_ AND2X2
XAND2X2_487 vdd gnd _432_ _416_ _433_ AND2X2
XAND2X2_488 vdd gnd _438_ _437_ _439_ AND2X2
XAND2X2_489 vdd gnd _435_ _440_ _441_ AND2X2
XAND2X2_490 vdd gnd _741_ _138__bF_buf3 _742_ AND2X2
XAND2X2_491 vdd gnd _442_ _441_ _443_ AND2X2
XAND2X2_492 vdd gnd _198_ ULA_B_3_bF_buf7 _445_ AND2X2
XAND2X2_493 vdd gnd _388_ ULA_B_1_bF_buf3 _446_ AND2X2
XAND2X2_494 vdd gnd _448_ _684__bF_buf5 _449_ AND2X2
XAND2X2_495 vdd gnd _452_ _212__bF_buf3 _453_ AND2X2
XAND2X2_496 vdd gnd _453_ _451_ _454_ AND2X2
XAND2X2_497 vdd gnd _456_ _444_ _457_ AND2X2
XAND2X2_498 vdd gnd _457_ _443_ _459_ AND2X2
XAND2X2_499 vdd gnd _473_ _472_ _474_ AND2X2
XAND2X2_500 vdd gnd _471_ _475_ _476_ AND2X2
XAND2X2_501 vdd gnd _742_ _733_ _743_ AND2X2
XAND2X2_502 vdd gnd _476_ _470_ _477_ AND2X2
XAND2X2_503 vdd gnd _222_ ULA_B_3_bF_buf2 _480_ AND2X2
XAND2X2_504 vdd gnd _353_ ULA_B_2_bF_buf7 _481_ AND2X2
XAND2X2_505 vdd gnd _422_ ULA_B_1_bF_buf3 _482_ AND2X2
XAND2X2_506 vdd gnd _483_ _684__bF_buf5 _484_ AND2X2
XAND2X2_507 vdd gnd _485_ _255__bF_buf4 _486_ AND2X2
XAND2X2_508 vdd gnd _487_ _212__bF_buf3 _488_ AND2X2
XAND2X2_509 vdd gnd _478_ _491_ _492_ AND2X2
XAND2X2_510 vdd gnd _492_ _477_ _493_ AND2X2
XAND2X2_511 vdd gnd ULA_A<28> ULA_B<28> _495_ AND2X2
XAND2X2_512 vdd gnd _743_ _730_ _744_ AND2X2
XAND2X2_513 vdd gnd _304_ _496_ _497_ AND2X2
XAND2X2_514 vdd gnd _495_ ULA_ctrl_1_bF_buf2 _502_ AND2X2
XAND2X2_515 vdd gnd _503_ ULA_ctrl<2> _504_ AND2X2
XAND2X2_516 vdd gnd _499_ _505_ _506_ AND2X2
XAND2X2_517 vdd gnd _498_ _506_ _507_ AND2X2
XAND2X2_518 vdd gnd _390_ ULA_B_2_bF_buf1 _510_ AND2X2
XAND2X2_519 vdd gnd _512_ _684__bF_buf5 _513_ AND2X2
XAND2X2_520 vdd gnd _448_ ULA_B_1_bF_buf3 _514_ AND2X2
XAND2X2_521 vdd gnd _515_ _255__bF_buf1 _516_ AND2X2
XAND2X2_522 vdd gnd _518_ _519_ _520_ AND2X2
XAND2X2_523 vdd gnd _744_ _706_ _745_ AND2X2
XAND2X2_524 vdd gnd _521_ _509_ _523_ AND2X2
XAND2X2_525 vdd gnd _523_ _507_ _524_ AND2X2
XAND2X2_526 vdd gnd _36_ ULA_B_4_bF_buf0 _526_ AND2X2
XAND2X2_527 vdd gnd _293_ ULA_B_3_bF_buf1 _527_ AND2X2
XAND2X2_528 vdd gnd _483_ ULA_B_1_bF_buf5 _528_ AND2X2
XAND2X2_529 vdd gnd _529_ _684__bF_buf5 _530_ AND2X2
XAND2X2_530 vdd gnd _531_ _255__bF_buf4 _533_ AND2X2
XAND2X2_531 vdd gnd _424_ ULA_B_2_bF_buf7 _534_ AND2X2
XAND2X2_532 vdd gnd _535_ _212__bF_buf5 _536_ AND2X2
XAND2X2_533 vdd gnd _537_ _728_ _538_ AND2X2
XAND2X2_534 vdd gnd _682_ _745_ _746_ AND2X2
XAND2X2_535 vdd gnd ULA_A<29> ULA_B<29> _545_ AND2X2
XAND2X2_536 vdd gnd _547_ _542_ _548_ AND2X2
XAND2X2_537 vdd gnd _548_ _541_ _549_ AND2X2
XAND2X2_538 vdd gnd _540_ _549_ _550_ AND2X2
XAND2X2_539 vdd gnd _304_ _551_ _552_ AND2X2
XAND2X2_540 vdd gnd _562_ _561_ _563_ AND2X2
XAND2X2_541 vdd gnd _560_ _565_ _566_ AND2X2
XAND2X2_542 vdd gnd _559_ _566_ _567_ AND2X2
XAND2X2_543 vdd gnd _569_ _684__bF_buf5 _570_ AND2X2
XAND2X2_544 vdd gnd _512_ ULA_B_1_bF_buf5 _571_ AND2X2
XAND2X2_545 vdd gnd _753_ _751_ _754_ AND2X2
XAND2X2_546 vdd gnd _574_ _573_ _576_ AND2X2
XAND2X2_547 vdd gnd _577_ _579_ _580_ AND2X2
XAND2X2_548 vdd gnd _581_ _568_ _582_ AND2X2
XAND2X2_549 vdd gnd _582_ _567_ _583_ AND2X2
XAND2X2_550 vdd gnd _355_ ULA_B_3_bF_buf1 _591_ AND2X2
XAND2X2_551 vdd gnd _592_ _593_ _594_ AND2X2
XAND2X2_552 vdd gnd _595_ _255__bF_buf6 _597_ AND2X2
XAND2X2_553 vdd gnd _594_ _597_ _598_ AND2X2
XAND2X2_554 vdd gnd _485_ ULA_B_2_bF_buf1 _599_ AND2X2
XAND2X2_555 vdd gnd _600_ _212__bF_buf5 _601_ AND2X2
XAND2X2_556 vdd gnd _340__bF_buf1 _522_ _532_ AND2X2
XAND2X2_557 vdd gnd _754_ _277__bF_buf2 _755_ AND2X2
XAND2X2_558 vdd gnd _602_ _728_ _603_ AND2X2
XAND2X2_559 vdd gnd _115_ ULA_B_4_bF_buf2 _604_ AND2X2