* XSpice netlist created from SPICE and liberty sources by spi2xspice.py
*SPICE netlist created from BLIF module NRISC_ULA by blif2BSpice
.subckt NRISC_ULA a_vdd a_gnd a_ULA_A_0_ a_ULA_A_1_ a_ULA_A_2_ a_ULA_A_3_ a_ULA_A_4_ a_ULA_A_5_ a_ULA_A_6_ a_ULA_A_7_ a_ULA_A_8_ a_ULA_A_9_ a_ULA_A_10_ a_ULA_A_11_ a_ULA_A_12_ a_ULA_A_13_ a_ULA_A_14_ a_ULA_A_15_ a_ULA_A_16_ a_ULA_A_17_ a_ULA_A_18_ a_ULA_A_19_ a_ULA_A_20_ a_ULA_A_21_ a_ULA_A_22_ a_ULA_A_23_ a_ULA_A_24_ a_ULA_A_25_ a_ULA_A_26_ a_ULA_A_27_ a_ULA_A_28_ a_ULA_A_29_ a_ULA_A_30_ a_ULA_A_31_ a_ULA_B_0_ a_ULA_B_1_ a_ULA_B_2_ a_ULA_B_3_ a_ULA_B_4_ a_ULA_B_5_ a_ULA_B_6_ a_ULA_B_7_ a_ULA_B_8_ a_ULA_B_9_ a_ULA_B_10_ a_ULA_B_11_ a_ULA_B_12_ a_ULA_B_13_ a_ULA_B_14_ a_ULA_B_15_ a_ULA_B_16_ a_ULA_B_17_ a_ULA_B_18_ a_ULA_B_19_ a_ULA_B_20_ a_ULA_B_21_ a_ULA_B_22_ a_ULA_B_23_ a_ULA_B_24_ a_ULA_B_25_ a_ULA_B_26_ a_ULA_B_27_ a_ULA_B_28_ a_ULA_B_29_ a_ULA_B_30_ a_ULA_B_31_ a_ULA_ctrl_0_ a_ULA_ctrl_1_ a_ULA_ctrl_2_ a_ULA_ctrl_3_ a_clk a_ULA_OUT_0_ a_ULA_OUT_1_ a_ULA_OUT_2_ a_ULA_OUT_3_ a_ULA_OUT_4_ a_ULA_OUT_5_ a_ULA_OUT_6_ a_ULA_OUT_7_ a_ULA_OUT_8_ a_ULA_OUT_9_ a_ULA_OUT_10_ a_ULA_OUT_11_ a_ULA_OUT_12_ a_ULA_OUT_13_ a_ULA_OUT_14_ a_ULA_OUT_15_ a_ULA_OUT_16_ a_ULA_OUT_17_ a_ULA_OUT_18_ a_ULA_OUT_19_ a_ULA_OUT_20_ a_ULA_OUT_21_ a_ULA_OUT_22_ a_ULA_OUT_23_ a_ULA_OUT_24_ a_ULA_OUT_25_ a_ULA_OUT_26_ a_ULA_OUT_27_ a_ULA_OUT_28_ a_ULA_OUT_29_ a_ULA_OUT_30_ a_ULA_OUT_31_ a_ULA_flags_0_ a_ULA_flags_1_ a_ULA_flags_2_
AAND2X2_1 [_41_ _42_] _52_ d_lut_AND2X2
AAND2X2_2 [_94_ _42_] _639_ d_lut_AND2X2
AAND2X2_3 [_490__bF_buf1 _656_] _861_ d_lut_AND2X2
AAND2X2_4 [_340__bF_buf1 _665_] _862_ d_lut_AND2X2
AAND2X2_5 [_863_ _277__bF_buf1] _864_ d_lut_AND2X2
AAND2X2_6 [_490__bF_buf2 _667_] _865_ d_lut_AND2X2
AAND2X2_7 [_340__bF_buf1 _671_] _866_ d_lut_AND2X2
AAND2X2_8 [_867_ _458__bF_buf2] _868_ d_lut_AND2X2
AAND2X2_9 [_869_ _664__bF_buf0] _870_ d_lut_AND2X2
AAND2X2_10 [_871_ _447__bF_buf3] _872_ d_lut_AND2X2
AAND2X2_11 [_490__bF_buf0 _673_] _873_ d_lut_AND2X2
AAND2X2_12 [_340__bF_buf3 _500_] _874_ d_lut_AND2X2
AAND2X2_13 [_490__bF_buf4 _650_] _651_ d_lut_AND2X2
AAND2X2_14 [_875_ _277__bF_buf3] _876_ d_lut_AND2X2
AAND2X2_15 [_490__bF_buf0 _522_] _877_ d_lut_AND2X2
AAND2X2_16 [_340__bF_buf0 _554_] _878_ d_lut_AND2X2
AAND2X2_17 [_879_ _458__bF_buf1] _880_ d_lut_AND2X2
AAND2X2_18 [_881_ _244__bF_buf3] _882_ d_lut_AND2X2
AAND2X2_19 [_490__bF_buf0 _575_] _883_ d_lut_AND2X2
AAND2X2_20 [_340__bF_buf0 _383_] _884_ d_lut_AND2X2
AAND2X2_21 [_885_ _277__bF_buf3] _886_ d_lut_AND2X2
AAND2X2_22 [_490__bF_buf0 _372_] _887_ d_lut_AND2X2
AAND2X2_23 [_340__bF_buf3 _287_] _888_ d_lut_AND2X2
AAND2X2_24 [_340__bF_buf2 _652_] _653_ d_lut_AND2X2
AAND2X2_25 [_889_ _458__bF_buf1] _890_ d_lut_AND2X2
AAND2X2_26 [_891_ _664__bF_buf4] _892_ d_lut_AND2X2
AAND2X2_27 [_893_ _774_] _894_ d_lut_AND2X2
AAND2X2_28 [_575_ ULA_B_1_bF_buf4] _897_ d_lut_AND2X2
AAND2X2_29 [_383_ _684__bF_buf2] _898_ d_lut_AND2X2
AAND2X2_30 [_899_ ULA_B_2_bF_buf5] _900_ d_lut_AND2X2
AAND2X2_31 [_287_ _684__bF_buf4] _901_ d_lut_AND2X2
AAND2X2_32 [_372_ ULA_B_1_bF_buf4] _902_ d_lut_AND2X2
AAND2X2_33 [_903_ _255__bF_buf3] _904_ d_lut_AND2X2
AAND2X2_34 [_905_ _212__bF_buf1] _906_ d_lut_AND2X2
AAND2X2_35 [_654_ _277__bF_buf2] _655_ d_lut_AND2X2
AAND2X2_36 [_673_ ULA_B_1_bF_buf6] _907_ d_lut_AND2X2
AAND2X2_37 [_500_ _684__bF_buf2] _908_ d_lut_AND2X2
AAND2X2_38 [_909_ ULA_B_2_bF_buf5] _910_ d_lut_AND2X2
AAND2X2_39 [_522_ ULA_B_1_bF_buf4] _911_ d_lut_AND2X2
AAND2X2_40 [_554_ _684__bF_buf2] _912_ d_lut_AND2X2
AAND2X2_41 [_913_ _255__bF_buf2] _914_ d_lut_AND2X2
AAND2X2_42 [_915_ ULA_B_3_bF_buf0] _916_ d_lut_AND2X2
AAND2X2_43 [_919_ ULA_B_2_bF_buf6] _920_ d_lut_AND2X2
AAND2X2_44 [_652_ ULA_B_1_bF_buf2] _921_ d_lut_AND2X2
AAND2X2_45 [_658_ _684__bF_buf0] _922_ d_lut_AND2X2
AAND2X2_46 [_340__bF_buf1 _656_] _657_ d_lut_AND2X2
AAND2X2_47 [_923_ _255__bF_buf5] _924_ d_lut_AND2X2
AAND2X2_48 [_925_ ULA_B_3_bF_buf7] _926_ d_lut_AND2X2
AAND2X2_49 [_665_ _684__bF_buf2] _927_ d_lut_AND2X2
AAND2X2_50 [_656_ ULA_B_1_bF_buf4] _928_ d_lut_AND2X2
AAND2X2_51 [_929_ ULA_B_2_bF_buf5] _930_ d_lut_AND2X2
AAND2X2_52 [_667_ ULA_B_1_bF_buf6] _931_ d_lut_AND2X2
AAND2X2_53 [_671_ _684__bF_buf2] _932_ d_lut_AND2X2
AAND2X2_54 [_933_ _255__bF_buf2] _934_ d_lut_AND2X2
AAND2X2_55 [_935_ _212__bF_buf2] _936_ d_lut_AND2X2
AAND2X2_56 [_940_ _939_] _941_ d_lut_AND2X2
AAND2X2_57 [_490__bF_buf1 _658_] _659_ d_lut_AND2X2
AAND2X2_58 [_943_ ULA_B_1_bF_buf2] _944_ d_lut_AND2X2
AAND2X2_59 [_945_ _684__bF_buf1] _946_ d_lut_AND2X2
AAND2X2_60 [_950_ _942_] _951_ d_lut_AND2X2
AAND2X2_61 [_938_ _951_] _952_ d_lut_AND2X2
AAND2X2_62 [_952_ _918_] _953_ d_lut_AND2X2
AAND2X2_63 [_896_ _953_] _954_ d_lut_AND2X2
AAND2X2_64 [ULA_A_3_ ULA_B_3_bF_buf6] _956_ d_lut_AND2X2
AAND2X2_65 [_490__bF_buf4 _752_] _962_ d_lut_AND2X2
AAND2X2_66 [_340__bF_buf2 _756_] _963_ d_lut_AND2X2
AAND2X2_67 [_965_ _961_] _966_ d_lut_AND2X2
AAND2X2_68 [_660_ _458__bF_buf0] _661_ d_lut_AND2X2
AAND2X2_69 [_966_ _244__bF_buf1] _967_ d_lut_AND2X2
AAND2X2_70 [_490__bF_buf1 _758_] _968_ d_lut_AND2X2
AAND2X2_71 [_340__bF_buf1 _765_] _969_ d_lut_AND2X2
AAND2X2_72 [_970_ _277__bF_buf1] _971_ d_lut_AND2X2
AAND2X2_73 [_490__bF_buf2 _764_] _972_ d_lut_AND2X2
AAND2X2_74 [_340__bF_buf4 _768_] _973_ d_lut_AND2X2
AAND2X2_75 [_974_ _458__bF_buf3] _975_ d_lut_AND2X2
AAND2X2_76 [_976_ _664__bF_buf1] _977_ d_lut_AND2X2
AAND2X2_77 [_978_ _447__bF_buf2] _979_ d_lut_AND2X2
AAND2X2_78 [_982_ _244__bF_buf0] _983_ d_lut_AND2X2
AAND2X2_79 [_662_ _244__bF_buf1] _663_ d_lut_AND2X2
AAND2X2_80 [_986_ _664__bF_buf3] _987_ d_lut_AND2X2
AAND2X2_81 [_988_ _774_] _989_ d_lut_AND2X2
AAND2X2_82 [_994_ ULA_B_3_bF_buf6] _995_ d_lut_AND2X2
AAND2X2_83 [_998_ _212__bF_buf4] _999_ d_lut_AND2X2
AAND2X2_84 [_752_ ULA_B_1_bF_buf2] _1002_ d_lut_AND2X2
AAND2X2_85 [_756_ _684__bF_buf0] _1003_ d_lut_AND2X2
AAND2X2_86 [_1005_ _961_] _1006_ d_lut_AND2X2
AAND2X2_87 [_1006_ ULA_B_3_bF_buf5] _1007_ d_lut_AND2X2
AAND2X2_88 [_758_ ULA_B_1_bF_buf0] _1008_ d_lut_AND2X2
AAND2X2_89 [_765_ _684__bF_buf0] _1009_ d_lut_AND2X2
AAND2X2_90 [_490__bF_buf1 _665_] _666_ d_lut_AND2X2
AAND2X2_91 [_1010_ ULA_B_2_bF_buf2] _1011_ d_lut_AND2X2
AAND2X2_92 [_764_ ULA_B_1_bF_buf2] _1012_ d_lut_AND2X2
AAND2X2_93 [_768_ _684__bF_buf0] _1013_ d_lut_AND2X2
AAND2X2_94 [_1014_ _255__bF_buf0] _1015_ d_lut_AND2X2
AAND2X2_95 [_1016_ _212__bF_buf4] _1017_ d_lut_AND2X2
AAND2X2_96 [_838_ ULA_B_1_bF_buf5] _1020_ d_lut_AND2X2
AAND2X2_97 [_1021_ _684__bF_buf1] _1022_ d_lut_AND2X2
AAND2X2_98 [_956_ ULA_ctrl_1_bF_buf4] _1026_ d_lut_AND2X2
AAND2X2_99 [_1028_ _1019_] _1029_ d_lut_AND2X2
AAND2X2_100 [_1029_ _1001_] _1030_ d_lut_AND2X2
AAND2X2_101 [_340__bF_buf1 _667_] _668_ d_lut_AND2X2
AAND2X2_102 [_991_ _1030_] _1031_ d_lut_AND2X2
AAND2X2_103 [_1037_ _458__bF_buf0] _1038_ d_lut_AND2X2
AAND2X2_104 [_660_ _277__bF_buf0] _1040_ d_lut_AND2X2
AAND2X2_105 [_669_ _458__bF_buf3] _1041_ d_lut_AND2X2
AAND2X2_106 [_1042_ _664__bF_buf0] _1043_ d_lut_AND2X2
AAND2X2_107 [_1044_ _447__bF_buf0] _1045_ d_lut_AND2X2
AAND2X2_108 [_675_ _277__bF_buf1] _1046_ d_lut_AND2X2
AAND2X2_109 [_543_ _458__bF_buf2] _1047_ d_lut_AND2X2
AAND2X2_110 [_1048_ _244__bF_buf3] _1049_ d_lut_AND2X2
AAND2X2_111 [_1051_ _664__bF_buf4] _1052_ d_lut_AND2X2
AAND2X2_112 [_319_ ULA_ctrl_0_bF_buf0] _330_ d_lut_AND2X2
AAND2X2_113 [_669_ _277__bF_buf1] _670_ d_lut_AND2X2
AAND2X2_114 [_1053_ _774_] _1054_ d_lut_AND2X2
AAND2X2_115 [_1057_ ULA_B_3_bF_buf4] _1058_ d_lut_AND2X2
AAND2X2_116 [_713_ ULA_B_2_bF_buf4] _1059_ d_lut_AND2X2
AAND2X2_117 [_719_ _255__bF_buf5] _1060_ d_lut_AND2X2
AAND2X2_118 [_1061_ _212__bF_buf2] _1062_ d_lut_AND2X2
AAND2X2_119 [_723_ ULA_B_2_bF_buf5] _1066_ d_lut_AND2X2
AAND2X2_120 [_696_ _255__bF_buf2] _1067_ d_lut_AND2X2
AAND2X2_121 [_1074_ _684__bF_buf1] _1075_ d_lut_AND2X2
AAND2X2_122 [_945_ ULA_B_1_bF_buf5] _1076_ d_lut_AND2X2
AAND2X2_123 [_1077_ _255__bF_buf5] _1078_ d_lut_AND2X2
AAND2X2_124 [_490__bF_buf0 _671_] _672_ d_lut_AND2X2
AAND2X2_125 [_1083_ _1082_] _1084_ d_lut_AND2X2
AAND2X2_126 [_1081_ _1085_] _1086_ d_lut_AND2X2
AAND2X2_127 [_1072_ _1086_] _1087_ d_lut_AND2X2
AAND2X2_128 [_1087_ _1064_] _1088_ d_lut_AND2X2
AAND2X2_129 [_1056_ _1088_] _1089_ d_lut_AND2X2
AAND2X2_130 [_1095_ _244__bF_buf1] _1096_ d_lut_AND2X2
AAND2X2_131 [_760_ _277__bF_buf0] _1097_ d_lut_AND2X2
AAND2X2_132 [_490__bF_buf2 _765_] _1098_ d_lut_AND2X2
AAND2X2_133 [_340__bF_buf2 _764_] _1099_ d_lut_AND2X2
AAND2X2_134 [_1100_ _458__bF_buf0] _1101_ d_lut_AND2X2
AAND2X2_135 [_340__bF_buf0 _673_] _674_ d_lut_AND2X2
AAND2X2_136 [_1102_ _664__bF_buf1] _1103_ d_lut_AND2X2
AAND2X2_137 [_1104_ _447__bF_buf2] _1105_ d_lut_AND2X2
AAND2X2_138 [_1107_ _664__bF_buf3] _1108_ d_lut_AND2X2
AAND2X2_139 [_490__bF_buf3 _768_] _1109_ d_lut_AND2X2
AAND2X2_140 [_340__bF_buf5 _767_] _1110_ d_lut_AND2X2
AAND2X2_141 [_1111_ _277__bF_buf4] _1112_ d_lut_AND2X2
AAND2X2_142 [_779_ _458__bF_buf2] _1113_ d_lut_AND2X2
AAND2X2_143 [_1114_ _244__bF_buf0] _1115_ d_lut_AND2X2
AAND2X2_144 [_1116_ _774_] _1117_ d_lut_AND2X2
AAND2X2_145 [_1121_ _1120_] _1122_ d_lut_AND2X2
AAND2X2_146 [_675_ _458__bF_buf2] _676_ d_lut_AND2X2
AAND2X2_147 [_831_ ULA_B_2_bF_buf2] _1123_ d_lut_AND2X2
AAND2X2_148 [_807_ _255__bF_buf0] _1124_ d_lut_AND2X2
AAND2X2_149 [_1128_ ULA_B_3_bF_buf3] _1129_ d_lut_AND2X2
AAND2X2_150 [_824_ ULA_B_2_bF_buf2] _1130_ d_lut_AND2X2
AAND2X2_151 [_828_ _255__bF_buf0] _1131_ d_lut_AND2X2
AAND2X2_152 [_1132_ _212__bF_buf1] _1133_ d_lut_AND2X2
AAND2X2_153 [_839_ ULA_B_2_bF_buf0] _1136_ d_lut_AND2X2
AAND2X2_154 [_1021_ ULA_B_1_bF_buf5] _1137_ d_lut_AND2X2
AAND2X2_155 [_1138_ _684__bF_buf1] _1139_ d_lut_AND2X2
AAND2X2_156 [_1140_ _255__bF_buf6] _1141_ d_lut_AND2X2
AAND2X2_157 [_677_ _664__bF_buf2] _678_ d_lut_AND2X2
AAND2X2_158 [_1146_ _1145_] _1147_ d_lut_AND2X2
AAND2X2_159 [_1144_ _1148_] _1149_ d_lut_AND2X2
AAND2X2_160 [_1135_ _1149_] _1150_ d_lut_AND2X2
AAND2X2_161 [_1127_ _1150_] _1151_ d_lut_AND2X2
AAND2X2_162 [_1119_ _1151_] _1152_ d_lut_AND2X2
AAND2X2_163 [_857_ _277__bF_buf0] _1158_ d_lut_AND2X2
AAND2X2_164 [_863_ _458__bF_buf3] _1159_ d_lut_AND2X2
AAND2X2_165 [_1160_ _664__bF_buf1] _1161_ d_lut_AND2X2
AAND2X2_166 [_1162_ _244__bF_buf1] _1163_ d_lut_AND2X2
AAND2X2_167 [_1164_ _447__bF_buf0] _1165_ d_lut_AND2X2
AAND2X2_168 [_680_ _649_] _681_ d_lut_AND2X2
AAND2X2_169 [_1167_ _664__bF_buf4] _1168_ d_lut_AND2X2
AAND2X2_170 [_1168_ _1166_] _1169_ d_lut_AND2X2
AAND2X2_171 [_867_ _277__bF_buf3] _1170_ d_lut_AND2X2
AAND2X2_172 [_875_ _458__bF_buf1] _1171_ d_lut_AND2X2
AAND2X2_173 [_1172_ _244__bF_buf3] _1173_ d_lut_AND2X2
AAND2X2_174 [_1174_ _774_] _1175_ d_lut_AND2X2
AAND2X2_175 [_1178_ ULA_B_3_bF_buf7] _1179_ d_lut_AND2X2
AAND2X2_176 [_923_ ULA_B_2_bF_buf6] _1180_ d_lut_AND2X2
AAND2X2_177 [_929_ _255__bF_buf2] _1181_ d_lut_AND2X2
AAND2X2_178 [_1182_ _212__bF_buf2] _1183_ d_lut_AND2X2
AAND2X2_179 [_383_ ULA_B_1_bF_buf4] _683_ d_lut_AND2X2
AAND2X2_180 [_933_ ULA_B_2_bF_buf5] _1186_ d_lut_AND2X2
AAND2X2_181 [_909_ _255__bF_buf2] _1187_ d_lut_AND2X2
AAND2X2_182 [_1188_ ULA_B_3_bF_buf0] _1189_ d_lut_AND2X2
AAND2X2_183 [_899_ _255__bF_buf3] _1190_ d_lut_AND2X2
AAND2X2_184 [_913_ ULA_B_2_bF_buf5] _1191_ d_lut_AND2X2
AAND2X2_185 [_1192_ _212__bF_buf1] _1193_ d_lut_AND2X2
AAND2X2_186 [_1196_ _684__bF_buf1] _1197_ d_lut_AND2X2
AAND2X2_187 [_1074_ ULA_B_1_bF_buf5] _1198_ d_lut_AND2X2
AAND2X2_188 [_1199_ _255__bF_buf5] _1200_ d_lut_AND2X2
AAND2X2_189 [_947_ ULA_B_2_bF_buf6] _1201_ d_lut_AND2X2
AAND2X2_190 [_372_ _684__bF_buf4] _685_ d_lut_AND2X2
AAND2X2_191 [_1206_ _1205_] _1207_ d_lut_AND2X2
AAND2X2_192 [_1204_ _1208_] _1209_ d_lut_AND2X2
AAND2X2_193 [_1195_ _1209_] _1210_ d_lut_AND2X2
AAND2X2_194 [_1210_ _1185_] _1211_ d_lut_AND2X2
AAND2X2_195 [_1177_ _1211_] _1212_ d_lut_AND2X2
AAND2X2_196 [_964_ _277__bF_buf0] _1220_ d_lut_AND2X2
AAND2X2_197 [_970_ _458__bF_buf0] _1221_ d_lut_AND2X2
AAND2X2_198 [_1222_ _664__bF_buf1] _1223_ d_lut_AND2X2
AAND2X2_199 [_1224_ _447__bF_buf2] _1225_ d_lut_AND2X2
AAND2X2_200 [_974_ _277__bF_buf1] _1226_ d_lut_AND2X2
AAND2X2_201 [_686_ ULA_B_2_bF_buf2] _687_ d_lut_AND2X2
AAND2X2_202 [_490__bF_buf2 _767_] _1227_ d_lut_AND2X2
AAND2X2_203 [_340__bF_buf4 _775_] _1228_ d_lut_AND2X2
AAND2X2_204 [_1229_ _458__bF_buf3] _1230_ d_lut_AND2X2
AAND2X2_205 [_1231_ _244__bF_buf3] _1232_ d_lut_AND2X2
AAND2X2_206 [_490__bF_buf3 _777_] _1233_ d_lut_AND2X2
AAND2X2_207 [_340__bF_buf0 _781_] _1234_ d_lut_AND2X2
AAND2X2_208 [_490__bF_buf3 _783_] _1237_ d_lut_AND2X2
AAND2X2_209 [_340__bF_buf5 _793_] _1238_ d_lut_AND2X2
AAND2X2_210 [_1240_ _664__bF_buf4] _1241_ d_lut_AND2X2
AAND2X2_211 [_1241_ _1236_] _1242_ d_lut_AND2X2
AAND2X2_212 [_351_ _684__bF_buf4] _688_ d_lut_AND2X2
AAND2X2_213 [_1243_ _774_] _1244_ d_lut_AND2X2
AAND2X2_214 [_1004_ ULA_B_2_bF_buf4] _1247_ d_lut_AND2X2
AAND2X2_215 [_1010_ _255__bF_buf0] _1248_ d_lut_AND2X2
AAND2X2_216 [_1250_ _1251_] _1252_ d_lut_AND2X2
AAND2X2_217 [_1014_ ULA_B_2_bF_buf2] _1254_ d_lut_AND2X2
AAND2X2_218 [_767_ ULA_B_1_bF_buf7] _1255_ d_lut_AND2X2
AAND2X2_219 [_775_ _684__bF_buf4] _1256_ d_lut_AND2X2
AAND2X2_220 [_1257_ _255__bF_buf3] _1258_ d_lut_AND2X2
AAND2X2_221 [_1259_ ULA_B_3_bF_buf6] _1260_ d_lut_AND2X2
AAND2X2_222 [_783_ ULA_B_1_bF_buf4] _1261_ d_lut_AND2X2
AAND2X2_223 [_426_ ULA_ctrl_0_bF_buf3] _436_ d_lut_AND2X2
AAND2X2_224 [_287_ ULA_B_1_bF_buf4] _689_ d_lut_AND2X2
AAND2X2_225 [_793_ _684__bF_buf4] _1262_ d_lut_AND2X2
AAND2X2_226 [_1263_ _255__bF_buf3] _1264_ d_lut_AND2X2
AAND2X2_227 [_777_ ULA_B_1_bF_buf7] _1265_ d_lut_AND2X2
AAND2X2_228 [_781_ _684__bF_buf4] _1266_ d_lut_AND2X2
AAND2X2_229 [_1267_ ULA_B_2_bF_buf3] _1268_ d_lut_AND2X2
AAND2X2_230 [_1269_ _212__bF_buf4] _1270_ d_lut_AND2X2
AAND2X2_231 [_1023_ ULA_B_2_bF_buf0] _1273_ d_lut_AND2X2
AAND2X2_232 [_1138_ ULA_B_1_bF_buf6] _1274_ d_lut_AND2X2
AAND2X2_233 [_1275_ _684__bF_buf6] _1276_ d_lut_AND2X2
AAND2X2_234 [_1277_ _255__bF_buf6] _1278_ d_lut_AND2X2
AAND2X2_235 [_690_ _255__bF_buf3] _691_ d_lut_AND2X2
AAND2X2_236 [_1283_ _1282_] _1284_ d_lut_AND2X2
AAND2X2_237 [_1281_ _1285_] _1286_ d_lut_AND2X2
AAND2X2_238 [_1272_ _1286_] _1287_ d_lut_AND2X2
AAND2X2_239 [_1287_ _1253_] _1288_ d_lut_AND2X2
AAND2X2_240 [_1246_ _1288_] _1289_ d_lut_AND2X2
AAND2X2_241 [_677_ _244__bF_buf2] _1293_ d_lut_AND2X2
AAND2X2_242 [_543_ _277__bF_buf3] _1294_ d_lut_AND2X2
AAND2X2_243 [_596_ _458__bF_buf2] _1295_ d_lut_AND2X2
AAND2X2_244 [_1296_ _664__bF_buf3] _1297_ d_lut_AND2X2
AAND2X2_245 [_1299_ _1292_] _1300_ d_lut_AND2X2
AAND2X2_246 [_692_ _212__bF_buf1] _693_ d_lut_AND2X2
AAND2X2_247 [_725_ ULA_B_3_bF_buf3] _1302_ d_lut_AND2X2
AAND2X2_248 [_702_ _212__bF_buf2] _1303_ d_lut_AND2X2
AAND2X2_249 [_1306_ _684__bF_buf1] _1307_ d_lut_AND2X2
AAND2X2_250 [_1196_ ULA_B_1_bF_buf6] _1308_ d_lut_AND2X2
AAND2X2_251 [_1309_ _255__bF_buf5] _1310_ d_lut_AND2X2
AAND2X2_252 [_1077_ ULA_B_2_bF_buf0] _1311_ d_lut_AND2X2
AAND2X2_253 [_1313_ _1314_] _1315_ d_lut_AND2X2
AAND2X2_254 [_1320_ _1319_] _1321_ d_lut_AND2X2
AAND2X2_255 [_1318_ _1322_] _1323_ d_lut_AND2X2
AAND2X2_256 [_1316_ _1323_] _1324_ d_lut_AND2X2
AAND2X2_257 [_500_ ULA_B_1_bF_buf6] _694_ d_lut_AND2X2
AAND2X2_258 [_1324_ _1305_] _1325_ d_lut_AND2X2
AAND2X2_259 [_1301_ _1325_] _1326_ d_lut_AND2X2
AAND2X2_260 [_770_ _244__bF_buf2] _1333_ d_lut_AND2X2
AAND2X2_261 [_787_ _664__bF_buf3] _1334_ d_lut_AND2X2
AAND2X2_262 [_1336_ _1332_] _1337_ d_lut_AND2X2
AAND2X2_263 [_813_ _212__bF_buf4] _1342_ d_lut_AND2X2
AAND2X2_264 [_840_ ULA_B_3_bF_buf7] _1345_ d_lut_AND2X2
AAND2X2_265 [_1140_ ULA_B_2_bF_buf0] _1346_ d_lut_AND2X2
AAND2X2_266 [_1275_ ULA_B_1_bF_buf1] _1347_ d_lut_AND2X2
AAND2X2_267 [_1348_ _684__bF_buf3] _1349_ d_lut_AND2X2
AAND2X2_268 [_522_ _684__bF_buf2] _695_ d_lut_AND2X2
AAND2X2_269 [_1350_ _255__bF_buf6] _1351_ d_lut_AND2X2
AAND2X2_270 [_1352_ _212__bF_buf0] _1353_ d_lut_AND2X2
AAND2X2_271 [_821_ ULA_B_2_bF_buf4] _1356_ d_lut_AND2X2
AAND2X2_272 [_824_ _255__bF_buf0] _1357_ d_lut_AND2X2
AAND2X2_273 [_1362_ _1361_] _1363_ d_lut_AND2X2
AAND2X2_274 [_1360_ _1364_] _1365_ d_lut_AND2X2
AAND2X2_275 [_1365_ _1355_] _1366_ d_lut_AND2X2
AAND2X2_276 [_1366_ _1344_] _1367_ d_lut_AND2X2
AAND2X2_277 [_1338_ _1367_] _1368_ d_lut_AND2X2
AAND2X2_278 [_869_ _244__bF_buf2] _1375_ d_lut_AND2X2
AAND2X2_279 [_696_ ULA_B_2_bF_buf5] _697_ d_lut_AND2X2
AAND2X2_280 [_881_ _664__bF_buf0] _1376_ d_lut_AND2X2
AAND2X2_281 [_1378_ _1374_] _1379_ d_lut_AND2X2
AAND2X2_282 [_935_ ULA_B_3_bF_buf0] _1381_ d_lut_AND2X2
AAND2X2_283 [_915_ _212__bF_buf2] _1382_ d_lut_AND2X2
AAND2X2_284 [_1386_ _684__bF_buf1] _1387_ d_lut_AND2X2
AAND2X2_285 [_1306_ ULA_B_1_bF_buf6] _1388_ d_lut_AND2X2
AAND2X2_286 [_1389_ _255__bF_buf5] _1390_ d_lut_AND2X2
AAND2X2_287 [_1199_ ULA_B_2_bF_buf6] _1391_ d_lut_AND2X2
AAND2X2_288 [_1393_ _1385_] _1394_ d_lut_AND2X2
AAND2X2_289 [_1399_ _1398_] _1400_ d_lut_AND2X2
AAND2X2_290 [_554_ ULA_B_1_bF_buf4] _698_ d_lut_AND2X2
AAND2X2_291 [_1397_ _1401_] _1402_ d_lut_AND2X2
AAND2X2_292 [_1395_ _1402_] _1403_ d_lut_AND2X2
AAND2X2_293 [_1403_ _1384_] _1404_ d_lut_AND2X2
AAND2X2_294 [_1380_ _1404_] _1405_ d_lut_AND2X2
AAND2X2_295 [_976_ _244__bF_buf0] _1412_ d_lut_AND2X2
AAND2X2_296 [_982_ _664__bF_buf3] _1413_ d_lut_AND2X2
AAND2X2_297 [_1415_ _1411_] _1416_ d_lut_AND2X2
AAND2X2_298 [_1418_ ULA_B_3_bF_buf2] _1419_ d_lut_AND2X2
AAND2X2_299 [_1277_ ULA_B_2_bF_buf1] _1420_ d_lut_AND2X2
AAND2X2_300 [_1348_ ULA_B_1_bF_buf1] _1421_ d_lut_AND2X2
AAND2X2_301 [_575_ _684__bF_buf2] _699_ d_lut_AND2X2
AAND2X2_302 [_1422_ _684__bF_buf3] _1423_ d_lut_AND2X2
AAND2X2_303 [_1424_ _255__bF_buf4] _1425_ d_lut_AND2X2
AAND2X2_304 [_1426_ _212__bF_buf3] _1427_ d_lut_AND2X2
AAND2X2_305 [_1016_ ULA_B_3_bF_buf6] _1430_ d_lut_AND2X2
AAND2X2_306 [_994_ _212__bF_buf4] _1431_ d_lut_AND2X2
AAND2X2_307 [_1437_ _1436_] _1438_ d_lut_AND2X2
AAND2X2_308 [_1435_ _1439_] _1440_ d_lut_AND2X2
AAND2X2_309 [_1433_ _1440_] _1441_ d_lut_AND2X2
AAND2X2_310 [_1441_ _1429_] _1442_ d_lut_AND2X2
AAND2X2_311 [_1417_ _1442_] _1443_ d_lut_AND2X2
AAND2X2_312 [_700_ _255__bF_buf3] _701_ d_lut_AND2X2
AAND2X2_313 [_1042_ _244__bF_buf3] _1454_ d_lut_AND2X2
AAND2X2_314 [_1048_ _664__bF_buf0] _1455_ d_lut_AND2X2
AAND2X2_315 [_1457_ _1453_] _1458_ d_lut_AND2X2
AAND2X2_316 [_1460_ _684__bF_buf6] _1461_ d_lut_AND2X2
AAND2X2_317 [_1386_ ULA_B_1_bF_buf6] _1462_ d_lut_AND2X2
AAND2X2_318 [_1463_ _255__bF_buf2] _1464_ d_lut_AND2X2
AAND2X2_319 [_1309_ ULA_B_2_bF_buf0] _1465_ d_lut_AND2X2
AAND2X2_320 [_1466_ _212__bF_buf0] _1467_ d_lut_AND2X2
AAND2X2_321 [_1079_ ULA_B_3_bF_buf4] _1468_ d_lut_AND2X2
AAND2X2_322 [_1068_ _212__bF_buf1] _1471_ d_lut_AND2X2
AAND2X2_323 [_702_ ULA_B_3_bF_buf3] _703_ d_lut_AND2X2
AAND2X2_324 [_1061_ ULA_B_3_bF_buf3] _1472_ d_lut_AND2X2
AAND2X2_325 [_3_ _2_] _4_ d_lut_AND2X2
AAND2X2_326 [_1_ _5_] _6_ d_lut_AND2X2
AAND2X2_327 [_1474_ _6_] _7_ d_lut_AND2X2
AAND2X2_328 [_7_ _1470_] _8_ d_lut_AND2X2
AAND2X2_329 [_1459_ _8_] _9_ d_lut_AND2X2
AAND2X2_330 [_1102_ _244__bF_buf1] _16_ d_lut_AND2X2
AAND2X2_331 [_1114_ _664__bF_buf2] _17_ d_lut_AND2X2
AAND2X2_332 [_19_ _15_] _20_ d_lut_AND2X2
AAND2X2_333 [_22_ _23_] _24_ d_lut_AND2X2
AAND2X2_334 [_479_ _298_] _490_ d_lut_AND2X2
AAND2X2_335 [_652_ _684__bF_buf1] _707_ d_lut_AND2X2
AAND2X2_336 [_1142_ ULA_B_3_bF_buf1] _26_ d_lut_AND2X2
AAND2X2_337 [_1350_ ULA_B_2_bF_buf1] _27_ d_lut_AND2X2
AAND2X2_338 [_1422_ ULA_B_1_bF_buf1] _28_ d_lut_AND2X2
AAND2X2_339 [_29_ _684__bF_buf3] _31_ d_lut_AND2X2
AAND2X2_340 [_32_ _255__bF_buf4] _33_ d_lut_AND2X2
AAND2X2_341 [_34_ _212__bF_buf5] _35_ d_lut_AND2X2
AAND2X2_342 [_43_ ULA_ctrl_2_] _44_ d_lut_AND2X2
AAND2X2_343 [_39_ _45_] _46_ d_lut_AND2X2
AAND2X2_344 [_37_ _46_] _47_ d_lut_AND2X2
AAND2X2_345 [_47_ _25_] _48_ d_lut_AND2X2
AAND2X2_346 [_650_ ULA_B_1_bF_buf5] _708_ d_lut_AND2X2
AAND2X2_347 [_21_ _48_] _49_ d_lut_AND2X2
AAND2X2_348 [_1160_ _244__bF_buf2] _57_ d_lut_AND2X2
AAND2X2_349 [_1172_ _664__bF_buf4] _58_ d_lut_AND2X2
AAND2X2_350 [_60_ _56_] _61_ d_lut_AND2X2
AAND2X2_351 [_64_ _65_] _66_ d_lut_AND2X2
AAND2X2_352 [_68_ _684__bF_buf6] _69_ d_lut_AND2X2
AAND2X2_353 [_1460_ ULA_B_1_bF_buf3] _70_ d_lut_AND2X2
AAND2X2_354 [_71_ _255__bF_buf6] _72_ d_lut_AND2X2
AAND2X2_355 [_1389_ ULA_B_2_bF_buf0] _73_ d_lut_AND2X2
AAND2X2_356 [_75_ _212__bF_buf0] _76_ d_lut_AND2X2
AAND2X2_357 [_709_ ULA_B_2_bF_buf6] _710_ d_lut_AND2X2
AAND2X2_358 [_1202_ ULA_B_3_bF_buf4] _77_ d_lut_AND2X2
AAND2X2_359 [_83_ _82_] _84_ d_lut_AND2X2
AAND2X2_360 [_81_ _85_] _86_ d_lut_AND2X2
AAND2X2_361 [_79_ _86_] _87_ d_lut_AND2X2
AAND2X2_362 [_87_ _67_] _88_ d_lut_AND2X2
AAND2X2_363 [_62_ _88_] _89_ d_lut_AND2X2
AAND2X2_364 [_1222_ _244__bF_buf0] _97_ d_lut_AND2X2
AAND2X2_365 [_1231_ _664__bF_buf3] _98_ d_lut_AND2X2
AAND2X2_366 [_1279_ ULA_B_3_bF_buf1] _104_ d_lut_AND2X2
AAND2X2_367 [_1424_ ULA_B_2_bF_buf1] _107_ d_lut_AND2X2
AAND2X2_368 [_658_ ULA_B_1_bF_buf2] _711_ d_lut_AND2X2
AAND2X2_369 [_29_ ULA_B_1_bF_buf3] _108_ d_lut_AND2X2
AAND2X2_370 [_109_ _684__bF_buf5] _110_ d_lut_AND2X2
AAND2X2_371 [_111_ _255__bF_buf1] _112_ d_lut_AND2X2
AAND2X2_372 [_113_ _212__bF_buf5] _114_ d_lut_AND2X2
AAND2X2_373 [_117_ _118_] _119_ d_lut_AND2X2
AAND2X2_374 [_122_ _729_] _123_ d_lut_AND2X2
AAND2X2_375 [_124_ _120_] _125_ d_lut_AND2X2
AAND2X2_376 [_125_ _116_] _126_ d_lut_AND2X2
AAND2X2_377 [_103_ _126_] _128_ d_lut_AND2X2
AAND2X2_378 [_128_ _100_] _129_ d_lut_AND2X2
AAND2X2_379 [_656_ _684__bF_buf0] _712_ d_lut_AND2X2
AAND2X2_380 [_140_ _133_] _141_ d_lut_AND2X2
AAND2X2_381 [_145_ _212__bF_buf0] _146_ d_lut_AND2X2
AAND2X2_382 [_1312_ ULA_B_3_bF_buf7] _147_ d_lut_AND2X2
AAND2X2_383 [_150_ _151_] _152_ d_lut_AND2X2
AAND2X2_384 [_153_ _141_] _154_ d_lut_AND2X2
AAND2X2_385 [_154_ _132_] _155_ d_lut_AND2X2
AAND2X2_386 [_109_ ULA_B_1_bF_buf3] _161_ d_lut_AND2X2
AAND2X2_387 [_162_ _684__bF_buf3] _163_ d_lut_AND2X2
AAND2X2_388 [_166_ _728_] _167_ d_lut_AND2X2
AAND2X2_389 [_172_ _177_] _178_ d_lut_AND2X2
AAND2X2_390 [_713_ _255__bF_buf5] _714_ d_lut_AND2X2
AAND2X2_391 [_178_ _171_] _179_ d_lut_AND2X2
AAND2X2_392 [_179_ _170_] _182_ d_lut_AND2X2
AAND2X2_393 [_193_ _188_] _194_ d_lut_AND2X2
AAND2X2_394 [_198_ _212__bF_buf0] _199_ d_lut_AND2X2
AAND2X2_395 [_1392_ ULA_B_3_bF_buf7] _200_ d_lut_AND2X2
AAND2X2_396 [_202_ _728_] _203_ d_lut_AND2X2
AAND2X2_397 [_206_ _194_] _207_ d_lut_AND2X2
AAND2X2_398 [_207_ _187_] _208_ d_lut_AND2X2
AAND2X2_399 [_1426_ ULA_B_3_bF_buf2] _215_ d_lut_AND2X2
AAND2X2_400 [_111_ ULA_B_2_bF_buf7] _216_ d_lut_AND2X2
AAND2X2_401 [_715_ ULA_B_3_bF_buf3] _716_ d_lut_AND2X2
AAND2X2_402 [_162_ ULA_B_1_bF_buf1] _217_ d_lut_AND2X2
AAND2X2_403 [_218_ _684__bF_buf3] _219_ d_lut_AND2X2
AAND2X2_404 [_220_ _255__bF_buf1] _221_ d_lut_AND2X2
AAND2X2_405 [_222_ _212__bF_buf3] _224_ d_lut_AND2X2
AAND2X2_406 [_225_ _728_] _226_ d_lut_AND2X2
AAND2X2_407 [_232_ _231_] _233_ d_lut_AND2X2
AAND2X2_408 [_230_ _235_] _236_ d_lut_AND2X2
AAND2X2_409 [_229_ _236_] _237_ d_lut_AND2X2
AAND2X2_410 [_237_ _228_] _238_ d_lut_AND2X2
AAND2X2_411 [_1466_ ULA_B_3_bF_buf1] _246_ d_lut_AND2X2
AAND2X2_412 [_665_ ULA_B_1_bF_buf4] _717_ d_lut_AND2X2
AAND2X2_413 [_247_ _684__bF_buf3] _248_ d_lut_AND2X2
AAND2X2_414 [_196_ ULA_B_1_bF_buf1] _249_ d_lut_AND2X2
AAND2X2_415 [_250_ _255__bF_buf1] _251_ d_lut_AND2X2
AAND2X2_416 [_143_ _684__bF_buf6] _252_ d_lut_AND2X2
AAND2X2_417 [_68_ ULA_B_1_bF_buf3] _253_ d_lut_AND2X2
AAND2X2_418 [_254_ ULA_B_2_bF_buf7] _256_ d_lut_AND2X2
AAND2X2_419 [_257_ _212__bF_buf5] _258_ d_lut_AND2X2
AAND2X2_420 [_259_ _728_] _260_ d_lut_AND2X2
AAND2X2_421 [_1080_ ULA_B_4_bF_buf2] _261_ d_lut_AND2X2
AAND2X2_422 [_267_ _265_] _268_ d_lut_AND2X2
AAND2X2_423 [_667_ _684__bF_buf2] _718_ d_lut_AND2X2
AAND2X2_424 [_264_ _269_] _270_ d_lut_AND2X2
AAND2X2_425 [_263_ _270_] _271_ d_lut_AND2X2
AAND2X2_426 [_271_ _245_] _272_ d_lut_AND2X2
AAND2X2_427 [ULA_A_21_ ULA_B_21_] _282_ d_lut_AND2X2
AAND2X2_428 [_280_ _284_] _285_ d_lut_AND2X2
AAND2X2_429 [_164_ ULA_B_2_bF_buf7] _286_ d_lut_AND2X2
AAND2X2_430 [_218_ ULA_B_1_bF_buf1] _288_ d_lut_AND2X2
AAND2X2_431 [_289_ _684__bF_buf3] _290_ d_lut_AND2X2
AAND2X2_432 [_291_ _255__bF_buf1] _292_ d_lut_AND2X2
AAND2X2_433 [_293_ _212__bF_buf5] _294_ d_lut_AND2X2
AAND2X2_434 [_719_ ULA_B_2_bF_buf4] _720_ d_lut_AND2X2
AAND2X2_435 [_34_ ULA_B_3_bF_buf1] _295_ d_lut_AND2X2
AAND2X2_436 [_296_ _728_] _297_ d_lut_AND2X2
AAND2X2_437 [_1143_ ULA_B_4_bF_buf2] _299_ d_lut_AND2X2
AAND2X2_438 [_301_ _285_] _302_ d_lut_AND2X2
AAND2X2_439 [_302_ _279_] _303_ d_lut_AND2X2
AAND2X2_440 [_304_ _305_] _306_ d_lut_AND2X2
AAND2X2_441 [_315_ _310_] _316_ d_lut_AND2X2
AAND2X2_442 [_317_ _684__bF_buf6] _318_ d_lut_AND2X2
AAND2X2_443 [_247_ ULA_B_1_bF_buf1] _320_ d_lut_AND2X2
AAND2X2_444 [_321_ _255__bF_buf6] _322_ d_lut_AND2X2
AAND2X2_445 [_490__bF_buf1 _500_] _511_ d_lut_AND2X2
AAND2X2_446 [_671_ ULA_B_1_bF_buf6] _721_ d_lut_AND2X2
AAND2X2_447 [_196_ _684__bF_buf3] _323_ d_lut_AND2X2
AAND2X2_448 [_143_ ULA_B_1_bF_buf1] _324_ d_lut_AND2X2
AAND2X2_449 [_325_ ULA_B_2_bF_buf7] _326_ d_lut_AND2X2
AAND2X2_450 [_1203_ ULA_B_4_bF_buf1] _331_ d_lut_AND2X2
AAND2X2_451 [_333_ _316_] _334_ d_lut_AND2X2
AAND2X2_452 [_334_ _309_] _335_ d_lut_AND2X2
AAND2X2_453 [_344_ _343_] _345_ d_lut_AND2X2
AAND2X2_454 [_342_ _346_] _347_ d_lut_AND2X2
AAND2X2_455 [_220_ ULA_B_2_bF_buf7] _348_ d_lut_AND2X2
AAND2X2_456 [_289_ ULA_B_1_bF_buf1] _349_ d_lut_AND2X2
AAND2X2_457 [_673_ _684__bF_buf2] _722_ d_lut_AND2X2
AAND2X2_458 [_350_ _684__bF_buf3] _352_ d_lut_AND2X2
AAND2X2_459 [_353_ _255__bF_buf1] _354_ d_lut_AND2X2
AAND2X2_460 [_355_ _212__bF_buf5] _356_ d_lut_AND2X2
AAND2X2_461 [_113_ ULA_B_3_bF_buf2] _357_ d_lut_AND2X2
AAND2X2_462 [_358_ _728_] _359_ d_lut_AND2X2
AAND2X2_463 [_1280_ ULA_B_4_bF_buf0] _360_ d_lut_AND2X2
AAND2X2_464 [_363_ _347_] _364_ d_lut_AND2X2
AAND2X2_465 [_364_ _341_] _365_ d_lut_AND2X2
AAND2X2_466 [_380_ _379_] _381_ d_lut_AND2X2
AAND2X2_467 [_378_ _382_] _384_ d_lut_AND2X2
AAND2X2_468 [_723_ _255__bF_buf2] _724_ d_lut_AND2X2
AAND2X2_469 [_384_ _377_] _385_ d_lut_AND2X2
AAND2X2_470 [_145_ ULA_B_3_bF_buf2] _386_ d_lut_AND2X2
AAND2X2_471 [_317_ ULA_B_1_bF_buf3] _387_ d_lut_AND2X2
AAND2X2_472 [_388_ _684__bF_buf5] _389_ d_lut_AND2X2
AAND2X2_473 [_392_ _212__bF_buf3] _393_ d_lut_AND2X2
AAND2X2_474 [_393_ _391_] _395_ d_lut_AND2X2
AAND2X2_475 [_397_ _399_] _400_ d_lut_AND2X2
AAND2X2_476 [_400_ _385_] _401_ d_lut_AND2X2
AAND2X2_477 [_411_ ULA_ctrl_2_] _412_ d_lut_AND2X2
AAND2X2_478 [_409_ _413_] _414_ d_lut_AND2X2
AAND2X2_479 [_725_ _212__bF_buf2] _726_ d_lut_AND2X2
AAND2X2_480 [_414_ _408_] _416_ d_lut_AND2X2
AAND2X2_481 [_350_ ULA_B_1_bF_buf3] _421_ d_lut_AND2X2
AAND2X2_482 [_422_ _684__bF_buf5] _423_ d_lut_AND2X2
AAND2X2_483 [_424_ _255__bF_buf4] _425_ d_lut_AND2X2
AAND2X2_484 [_291_ ULA_B_2_bF_buf7] _427_ d_lut_AND2X2
AAND2X2_485 [_428_ _212__bF_buf3] _429_ d_lut_AND2X2
AAND2X2_486 [_431_ _417_] _432_ d_lut_AND2X2
AAND2X2_487 [_432_ _416_] _433_ d_lut_AND2X2
AAND2X2_488 [_438_ _437_] _439_ d_lut_AND2X2
AAND2X2_489 [_435_ _440_] _441_ d_lut_AND2X2
AAND2X2_490 [_741_ _138__bF_buf3] _742_ d_lut_AND2X2
AAND2X2_491 [_442_ _441_] _443_ d_lut_AND2X2
AAND2X2_492 [_198_ ULA_B_3_bF_buf7] _445_ d_lut_AND2X2
AAND2X2_493 [_388_ ULA_B_1_bF_buf3] _446_ d_lut_AND2X2
AAND2X2_494 [_448_ _684__bF_buf5] _449_ d_lut_AND2X2
AAND2X2_495 [_452_ _212__bF_buf3] _453_ d_lut_AND2X2
AAND2X2_496 [_453_ _451_] _454_ d_lut_AND2X2
AAND2X2_497 [_456_ _444_] _457_ d_lut_AND2X2
AAND2X2_498 [_457_ _443_] _459_ d_lut_AND2X2
AAND2X2_499 [_473_ _472_] _474_ d_lut_AND2X2
AAND2X2_500 [_471_ _475_] _476_ d_lut_AND2X2
AAND2X2_501 [_742_ _733_] _743_ d_lut_AND2X2
AAND2X2_502 [_476_ _470_] _477_ d_lut_AND2X2
AAND2X2_503 [_222_ ULA_B_3_bF_buf2] _480_ d_lut_AND2X2
AAND2X2_504 [_353_ ULA_B_2_bF_buf7] _481_ d_lut_AND2X2
AAND2X2_505 [_422_ ULA_B_1_bF_buf3] _482_ d_lut_AND2X2
AAND2X2_506 [_483_ _684__bF_buf5] _484_ d_lut_AND2X2
AAND2X2_507 [_485_ _255__bF_buf4] _486_ d_lut_AND2X2
AAND2X2_508 [_487_ _212__bF_buf3] _488_ d_lut_AND2X2
AAND2X2_509 [_478_ _491_] _492_ d_lut_AND2X2
AAND2X2_510 [_492_ _477_] _493_ d_lut_AND2X2
AAND2X2_511 [ULA_A_28_ ULA_B_28_] _495_ d_lut_AND2X2
AAND2X2_512 [_743_ _730_] _744_ d_lut_AND2X2
AAND2X2_513 [_304_ _496_] _497_ d_lut_AND2X2
AAND2X2_514 [_495_ ULA_ctrl_1_bF_buf2] _502_ d_lut_AND2X2
AAND2X2_515 [_503_ ULA_ctrl_2_] _504_ d_lut_AND2X2
AAND2X2_516 [_499_ _505_] _506_ d_lut_AND2X2
AAND2X2_517 [_498_ _506_] _507_ d_lut_AND2X2
AAND2X2_518 [_390_ ULA_B_2_bF_buf1] _510_ d_lut_AND2X2
AAND2X2_519 [_512_ _684__bF_buf5] _513_ d_lut_AND2X2
AAND2X2_520 [_448_ ULA_B_1_bF_buf3] _514_ d_lut_AND2X2
AAND2X2_521 [_515_ _255__bF_buf1] _516_ d_lut_AND2X2
AAND2X2_522 [_518_ _519_] _520_ d_lut_AND2X2
AAND2X2_523 [_744_ _706_] _745_ d_lut_AND2X2
AAND2X2_524 [_521_ _509_] _523_ d_lut_AND2X2
AAND2X2_525 [_523_ _507_] _524_ d_lut_AND2X2
AAND2X2_526 [_36_ ULA_B_4_bF_buf0] _526_ d_lut_AND2X2
AAND2X2_527 [_293_ ULA_B_3_bF_buf1] _527_ d_lut_AND2X2
AAND2X2_528 [_483_ ULA_B_1_bF_buf5] _528_ d_lut_AND2X2
AAND2X2_529 [_529_ _684__bF_buf5] _530_ d_lut_AND2X2
AAND2X2_530 [_531_ _255__bF_buf4] _533_ d_lut_AND2X2
AAND2X2_531 [_424_ ULA_B_2_bF_buf7] _534_ d_lut_AND2X2
AAND2X2_532 [_535_ _212__bF_buf5] _536_ d_lut_AND2X2
AAND2X2_533 [_537_ _728_] _538_ d_lut_AND2X2
AAND2X2_534 [_682_ _745_] _746_ d_lut_AND2X2
AAND2X2_535 [ULA_A_29_ ULA_B_29_] _545_ d_lut_AND2X2
AAND2X2_536 [_547_ _542_] _548_ d_lut_AND2X2
AAND2X2_537 [_548_ _541_] _549_ d_lut_AND2X2
AAND2X2_538 [_540_ _549_] _550_ d_lut_AND2X2
AAND2X2_539 [_304_ _551_] _552_ d_lut_AND2X2
AAND2X2_540 [_562_ _561_] _563_ d_lut_AND2X2
AAND2X2_541 [_560_ _565_] _566_ d_lut_AND2X2
AAND2X2_542 [_559_ _566_] _567_ d_lut_AND2X2
AAND2X2_543 [_569_ _684__bF_buf5] _570_ d_lut_AND2X2
AAND2X2_544 [_512_ ULA_B_1_bF_buf5] _571_ d_lut_AND2X2
AAND2X2_545 [_753_ _751_] _754_ d_lut_AND2X2
AAND2X2_546 [_574_ _573_] _576_ d_lut_AND2X2
AAND2X2_547 [_577_ _579_] _580_ d_lut_AND2X2
AAND2X2_548 [_581_ _568_] _582_ d_lut_AND2X2
AAND2X2_549 [_582_ _567_] _583_ d_lut_AND2X2
AAND2X2_550 [_355_ ULA_B_3_bF_buf1] _591_ d_lut_AND2X2
AAND2X2_551 [_592_ _593_] _594_ d_lut_AND2X2
AAND2X2_552 [_595_ _255__bF_buf6] _597_ d_lut_AND2X2
AAND2X2_553 [_594_ _597_] _598_ d_lut_AND2X2
AAND2X2_554 [_485_ ULA_B_2_bF_buf1] _599_ d_lut_AND2X2
AAND2X2_555 [_600_ _212__bF_buf5] _601_ d_lut_AND2X2