*SPICE netlist created from BLIF module NRISC_UP by blif2BSpice
.include /usr/local/share/qflow/tech/gscl45nm/gscl45nm.sp
.subckt NRISC_UP vdd gnd IDATA_CORE_out<0> IDATA_CORE_out<1> IDATA_CORE_out<2> IDATA_CORE_out<3> IDATA_CORE_out<4> IDATA_CORE_out<5> IDATA_CORE_out<6> IDATA_CORE_out<7> IDATA_CORE_out<8> IDATA_CORE_out<9> IDATA_CORE_out<10> IDATA_CORE_out<11> IDATA_CORE_out<12> IDATA_CORE_out<13> IDATA_CORE_out<14> IDATA_CORE_out<15> IDATA_CORE_out<16> IDATA_CORE_out<17> IDATA_CORE_out<18> IDATA_CORE_out<19> IDATA_CORE_out<20> IDATA_CORE_out<21> IDATA_CORE_out<22> IDATA_CORE_out<23> IDATA_CORE_out<24> IDATA_CORE_out<25> IDATA_CORE_out<26> IDATA_CORE_out<27> IDATA_CORE_out<28> IDATA_CORE_out<29> IDATA_CORE_out<30> IDATA_CORE_out<31> DDATA_CORE_out<0> DDATA_CORE_out<1> DDATA_CORE_out<2> DDATA_CORE_out<3> DDATA_CORE_out<4> DDATA_CORE_out<5> DDATA_CORE_out<6> DDATA_CORE_out<7> DDATA_CORE_out<8> DDATA_CORE_out<9> DDATA_CORE_out<10> DDATA_CORE_out<11> DDATA_CORE_out<12> DDATA_CORE_out<13> DDATA_CORE_out<14> DDATA_CORE_out<15> DDATA_CORE_out<16> DDATA_CORE_out<17> DDATA_CORE_out<18> DDATA_CORE_out<19> DDATA_CORE_out<20> DDATA_CORE_out<21> DDATA_CORE_out<22> DDATA_CORE_out<23> DDATA_CORE_out<24> DDATA_CORE_out<25> DDATA_CORE_out<26> DDATA_CORE_out<27> DDATA_CORE_out<28> DDATA_CORE_out<29> DDATA_CORE_out<30> DDATA_CORE_out<31> CORE_ctrl<0> CORE_ctrl<1> CORE_ctrl<2> INTERRUPT_ch<0> INTERRUPT_ch<1> INTERRUPT_ch<2> INTERRUPT_ch<3> INTERRUPT_ch<4> INTERRUPT_ch<5> INTERRUPT_ch<6> INTERRUPT_ch<7> INTERRUPT_flag clk rst IDATA_CORE_addr<0> IDATA_CORE_addr<1> IDATA_CORE_addr<2> IDATA_CORE_addr<3> IDATA_CORE_addr<4> IDATA_CORE_addr<5> IDATA_CORE_addr<6> IDATA_CORE_addr<7> IDATA_CORE_clk DDATA_CORE_addr<0> DDATA_CORE_addr<1> DDATA_CORE_addr<2> DDATA_CORE_addr<3> DDATA_CORE_addr<4> DDATA_CORE_addr<5> DDATA_CORE_addr<6> DDATA_CORE_addr<7> DDATA_CORE_in<0> DDATA_CORE_in<1> DDATA_CORE_in<2> DDATA_CORE_in<3> DDATA_CORE_in<4> DDATA_CORE_in<5> DDATA_CORE_in<6> DDATA_CORE_in<7> DDATA_CORE_in<8> DDATA_CORE_in<9> DDATA_CORE_in<10> DDATA_CORE_in<11> DDATA_CORE_in<12> DDATA_CORE_in<13> DDATA_CORE_in<14> DDATA_CORE_in<15> DDATA_CORE_in<16> DDATA_CORE_in<17> DDATA_CORE_in<18> DDATA_CORE_in<19> DDATA_CORE_in<20> DDATA_CORE_in<21> DDATA_CORE_in<22> DDATA_CORE_in<23> DDATA_CORE_in<24> DDATA_CORE_in<25> DDATA_CORE_in<26> DDATA_CORE_in<27> DDATA_CORE_in<28> DDATA_CORE_in<29> DDATA_CORE_in<30> DDATA_CORE_in<31> DDATA_CORE_load DDATA_CORE_write DDATA_CORE_ctrl<0> DDATA_CORE_ctrl<1> DDATA_CORE_ctrl<2> 
XBUFX2_1 vdd gnd clk clk_hier0_bF$buf8 BUFX2
XBUFX2_2 vdd gnd clk clk_hier0_bF$buf7 BUFX2
XBUFX2_3 vdd gnd clk clk_hier0_bF$buf6 BUFX2
XBUFX2_4 vdd gnd clk clk_hier0_bF$buf5 BUFX2
XBUFX2_5 vdd gnd clk clk_hier0_bF$buf4 BUFX2
XBUFX2_6 vdd gnd clk clk_hier0_bF$buf3 BUFX2
XBUFX2_7 vdd gnd clk clk_hier0_bF$buf2 BUFX2
XBUFX2_8 vdd gnd clk clk_hier0_bF$buf1 BUFX2
XBUFX2_9 vdd gnd clk clk_hier0_bF$buf0 BUFX2
XBUFX2_10 vdd gnd INTERRUPT_flag_bF$buf4 INTERRUPT_flag_bF$buf10_bF$buf3 BUFX2
XBUFX2_11 vdd gnd INTERRUPT_flag_bF$buf6 INTERRUPT_flag_bF$buf10_bF$buf2 BUFX2
XBUFX2_12 vdd gnd INTERRUPT_flag_bF$buf4 INTERRUPT_flag_bF$buf10_bF$buf1 BUFX2
XBUFX2_13 vdd gnd INTERRUPT_flag_bF$buf3 INTERRUPT_flag_bF$buf10_bF$buf0 BUFX2
XBUFX2_14 vdd gnd INTERRUPT_flag_bF$buf2 INTERRUPT_flag_bF$buf11_bF$buf3 BUFX2
XBUFX2_15 vdd gnd INTERRUPT_flag_bF$buf5 INTERRUPT_flag_bF$buf11_bF$buf2 BUFX2
XBUFX2_16 vdd gnd INTERRUPT_flag_bF$buf1 INTERRUPT_flag_bF$buf11_bF$buf1 BUFX2
XBUFX2_17 vdd gnd INTERRUPT_flag_bF$buf14 INTERRUPT_flag_bF$buf11_bF$buf0 BUFX2
XBUFX2_18 vdd gnd INTERRUPT_flag_bF$buf3 INTERRUPT_flag_bF$buf12_bF$buf3 BUFX2
XBUFX2_19 vdd gnd INTERRUPT_flag_bF$buf1 INTERRUPT_flag_bF$buf12_bF$buf2 BUFX2
XBUFX2_20 vdd gnd INTERRUPT_flag_bF$buf9 INTERRUPT_flag_bF$buf12_bF$buf1 BUFX2
XBUFX2_21 vdd gnd INTERRUPT_flag_bF$buf2 INTERRUPT_flag_bF$buf12_bF$buf0 BUFX2
XBUFX2_22 vdd gnd INTERRUPT_flag_bF$buf2 INTERRUPT_flag_bF$buf13_bF$buf3 BUFX2
XBUFX2_23 vdd gnd INTERRUPT_flag_bF$buf3 INTERRUPT_flag_bF$buf13_bF$buf2 BUFX2
XBUFX2_24 vdd gnd INTERRUPT_flag_bF$buf5 INTERRUPT_flag_bF$buf13_bF$buf1 BUFX2
XBUFX2_25 vdd gnd INTERRUPT_flag_bF$buf1 INTERRUPT_flag_bF$buf13_bF$buf0 BUFX2
XBUFX2_26 vdd gnd INTERRUPT_flag_bF$buf1 INTERRUPT_flag_bF$buf14_bF$buf3 BUFX2
XBUFX2_27 vdd gnd INTERRUPT_flag_bF$buf12 INTERRUPT_flag_bF$buf14_bF$buf2 BUFX2
XBUFX2_28 vdd gnd INTERRUPT_flag_bF$buf5 INTERRUPT_flag_bF$buf14_bF$buf1 BUFX2
XBUFX2_29 vdd gnd INTERRUPT_flag_bF$buf5 INTERRUPT_flag_bF$buf14_bF$buf0 BUFX2
XBUFX2_30 vdd gnd INTERRUPT_flag_bF$buf4 INTERRUPT_flag_bF$buf15_bF$buf3 BUFX2
XBUFX2_31 vdd gnd INTERRUPT_flag_bF$buf10 INTERRUPT_flag_bF$buf15_bF$buf2 BUFX2
XBUFX2_32 vdd gnd INTERRUPT_flag_bF$buf6 INTERRUPT_flag_bF$buf15_bF$buf1 BUFX2
XBUFX2_33 vdd gnd INTERRUPT_flag_bF$buf3 INTERRUPT_flag_bF$buf15_bF$buf0 BUFX2
XBUFX2_34 vdd gnd _1568__bF$buf2 _1568__bF$buf15_bF$buf3 BUFX2
XBUFX2_35 vdd gnd _1568__bF$buf6 _1568__bF$buf15_bF$buf2 BUFX2
XBUFX2_36 vdd gnd _1568__bF$buf6 _1568__bF$buf15_bF$buf1 BUFX2
XBUFX2_37 vdd gnd _1568__bF$buf3 _1568__bF$buf15_bF$buf0 BUFX2
XBUFX2_38 vdd gnd _1573_ _1573__hier0_bF$buf7 BUFX2
XBUFX2_39 vdd gnd _1573_ _1573__hier0_bF$buf6 BUFX2
XBUFX2_40 vdd gnd _1573_ _1573__hier0_bF$buf5 BUFX2
XBUFX2_41 vdd gnd _1573_ _1573__hier0_bF$buf4 BUFX2
XBUFX2_42 vdd gnd _1573_ _1573__hier0_bF$buf3 BUFX2
XBUFX2_43 vdd gnd _1573_ _1573__hier0_bF$buf2 BUFX2
XBUFX2_44 vdd gnd _1573_ _1573__hier0_bF$buf1 BUFX2
XBUFX2_45 vdd gnd _1573_ _1573__hier0_bF$buf0 BUFX2
XBUFX2_46 vdd gnd INTERRUPT_flag_bF$buf6 INTERRUPT_flag_bF$buf7_bF$buf3 BUFX2
XBUFX2_47 vdd gnd INTERRUPT_flag_bF$buf4 INTERRUPT_flag_bF$buf7_bF$buf2 BUFX2
XBUFX2_48 vdd gnd INTERRUPT_flag_bF$buf4 INTERRUPT_flag_bF$buf7_bF$buf1 BUFX2
XBUFX2_49 vdd gnd INTERRUPT_flag_bF$buf4 INTERRUPT_flag_bF$buf7_bF$buf0 BUFX2
XBUFX2_50 vdd gnd INTERRUPT_flag_bF$buf6 INTERRUPT_flag_bF$buf8_bF$buf3 BUFX2
XBUFX2_51 vdd gnd INTERRUPT_flag_bF$buf4 INTERRUPT_flag_bF$buf8_bF$buf2 BUFX2
XBUFX2_52 vdd gnd INTERRUPT_flag_bF$buf3 INTERRUPT_flag_bF$buf8_bF$buf1 BUFX2
XBUFX2_53 vdd gnd INTERRUPT_flag_bF$buf4 INTERRUPT_flag_bF$buf8_bF$buf0 BUFX2
XBUFX2_54 vdd gnd INTERRUPT_flag_bF$buf3 INTERRUPT_flag_bF$buf9_bF$buf3 BUFX2
XBUFX2_55 vdd gnd INTERRUPT_flag_bF$buf12 INTERRUPT_flag_bF$buf9_bF$buf2 BUFX2
XBUFX2_56 vdd gnd INTERRUPT_flag_bF$buf6 INTERRUPT_flag_bF$buf9_bF$buf1 BUFX2
XBUFX2_57 vdd gnd INTERRUPT_flag_bF$buf1 INTERRUPT_flag_bF$buf9_bF$buf0 BUFX2
XBUFX2_58 vdd gnd _3403_ _3403__bF$buf4 BUFX2
XBUFX2_59 vdd gnd _3403_ _3403__bF$buf3 BUFX2
XBUFX2_60 vdd gnd _3403_ _3403__bF$buf2 BUFX2
XBUFX2_61 vdd gnd _3403_ _3403__bF$buf1 BUFX2
XBUFX2_62 vdd gnd _3403_ _3403__bF$buf0 BUFX2
XBUFX2_63 vdd gnd _4361_ _4361__bF$buf4 BUFX2
XBUFX2_64 vdd gnd _4361_ _4361__bF$buf3 BUFX2
XBUFX2_65 vdd gnd _4361_ _4361__bF$buf2 BUFX2
XBUFX2_66 vdd gnd _4361_ _4361__bF$buf1 BUFX2
XBUFX2_67 vdd gnd _4361_ _4361__bF$buf0 BUFX2
XBUFX2_68 vdd gnd _1601_ _1601__bF$buf3 BUFX2
XBUFX2_69 vdd gnd _1601_ _1601__bF$buf2 BUFX2
XBUFX2_70 vdd gnd _1601_ _1601__bF$buf1 BUFX2
XBUFX2_71 vdd gnd _1601_ _1601__bF$buf0 BUFX2
XBUFX2_72 vdd gnd ULA.B<1> ULA.B_1_bF$buf7 BUFX2
XBUFX2_73 vdd gnd ULA.B<1> ULA.B_1_bF$buf6 BUFX2
XBUFX2_74 vdd gnd ULA.B<1> ULA.B_1_bF$buf5 BUFX2
XBUFX2_75 vdd gnd ULA.B<1> ULA.B_1_bF$buf4 BUFX2
XBUFX2_76 vdd gnd ULA.B<1> ULA.B_1_bF$buf3 BUFX2
XBUFX2_77 vdd gnd ULA.B<1> ULA.B_1_bF$buf2 BUFX2
XBUFX2_78 vdd gnd ULA.B<1> ULA.B_1_bF$buf1 BUFX2
XBUFX2_79 vdd gnd ULA.B<1> ULA.B_1_bF$buf0 BUFX2
XBUFX2_80 vdd gnd _5945_ _5945__bF$buf3 BUFX2
XBUFX2_81 vdd gnd _5945_ _5945__bF$buf2 BUFX2
XBUFX2_82 vdd gnd _5945_ _5945__bF$buf1 BUFX2
XBUFX2_83 vdd gnd _5945_ _5945__bF$buf0 BUFX2
XBUFX2_84 vdd gnd _776_ _776__bF$buf3 BUFX2
XBUFX2_85 vdd gnd _776_ _776__bF$buf2 BUFX2
XBUFX2_86 vdd gnd _776_ _776__bF$buf1 BUFX2
XBUFX2_87 vdd gnd _776_ _776__bF$buf0 BUFX2
XBUFX2_88 vdd gnd _1577_ _1577__bF$buf3 BUFX2
XBUFX2_89 vdd gnd _1577_ _1577__bF$buf2 BUFX2
XBUFX2_90 vdd gnd _1577_ _1577__bF$buf1 BUFX2
XBUFX2_91 vdd gnd _1577_ _1577__bF$buf0 BUFX2
XBUFX2_92 vdd gnd _1730_ _1730__bF$buf4 BUFX2
XBUFX2_93 vdd gnd _1730_ _1730__bF$buf3 BUFX2
XBUFX2_94 vdd gnd _1730_ _1730__bF$buf2 BUFX2
XBUFX2_95 vdd gnd _1730_ _1730__bF$buf1 BUFX2
XBUFX2_96 vdd gnd _1730_ _1730__bF$buf0 BUFX2
XBUFX2_97 vdd gnd _1633_ _1633__bF$buf3 BUFX2
XBUFX2_98 vdd gnd _1633_ _1633__bF$buf2 BUFX2
XBUFX2_99 vdd gnd _1633_ _1633__bF$buf1 BUFX2
XBUFX2_100 vdd gnd _1633_ _1633__bF$buf0 BUFX2
XBUFX2_101 vdd gnd _409_ _409__bF$buf5 BUFX2
XBUFX2_102 vdd gnd _409_ _409__bF$buf4 BUFX2
XBUFX2_103 vdd gnd _409_ _409__bF$buf3 BUFX2
XBUFX2_104 vdd gnd _409_ _409__bF$buf2 BUFX2
XBUFX2_105 vdd gnd _409_ _409__bF$buf1 BUFX2
XBUFX2_106 vdd gnd _409_ _409__bF$buf0 BUFX2
XBUFX2_107 vdd gnd _3373_ _3373__bF$buf4 BUFX2
XBUFX2_108 vdd gnd _3373_ _3373__bF$buf3 BUFX2
XBUFX2_109 vdd gnd _3373_ _3373__bF$buf2 BUFX2
XBUFX2_110 vdd gnd _3373_ _3373__bF$buf1 BUFX2
XBUFX2_111 vdd gnd _3373_ _3373__bF$buf0 BUFX2
XBUFX2_112 vdd gnd _1627_ _1627__bF$buf3 BUFX2
XBUFX2_113 vdd gnd _1627_ _1627__bF$buf2 BUFX2
XBUFX2_114 vdd gnd _1627_ _1627__bF$buf1 BUFX2
XBUFX2_115 vdd gnd _1627_ _1627__bF$buf0 BUFX2
XBUFX2_116 vdd gnd _1568_ _1568__bF$buf15 BUFX2
XBUFX2_117 vdd gnd _1568_ _1568__bF$buf14 BUFX2
XBUFX2_118 vdd gnd _1568_ _1568__bF$buf13 BUFX2
XBUFX2_119 vdd gnd _1568_ _1568__bF$buf12 BUFX2
XBUFX2_120 vdd gnd _1568_ _1568__bF$buf11 BUFX2
XBUFX2_121 vdd gnd _1568_ _1568__bF$buf10 BUFX2
XBUFX2_122 vdd gnd _1568_ _1568__bF$buf9 BUFX2
XBUFX2_123 vdd gnd _1568_ _1568__bF$buf8 BUFX2
XBUFX2_124 vdd gnd _1568_ _1568__bF$buf7 BUFX2
XBUFX2_125 vdd gnd _1568_ _1568__bF$buf6 BUFX2
XBUFX2_126 vdd gnd _1568_ _1568__bF$buf5 BUFX2
XBUFX2_127 vdd gnd _1568_ _1568__bF$buf4 BUFX2
XBUFX2_128 vdd gnd _1568_ _1568__bF$buf3 BUFX2
XBUFX2_129 vdd gnd _1568_ _1568__bF$buf2 BUFX2
XBUFX2_130 vdd gnd _1568_ _1568__bF$buf1 BUFX2
XBUFX2_131 vdd gnd _1568_ _1568__bF$buf0 BUFX2
XBUFX2_132 vdd gnd _4728_ _4728__bF$buf4 BUFX2
XBUFX2_133 vdd gnd _4728_ _4728__bF$buf3 BUFX2
XBUFX2_134 vdd gnd _4728_ _4728__bF$buf2 BUFX2
XBUFX2_135 vdd gnd _4728_ _4728__bF$buf1 BUFX2
XBUFX2_136 vdd gnd _4728_ _4728__bF$buf0 BUFX2
XBUFX2_137 vdd gnd _1721_ _1721__bF$buf4 BUFX2
XBUFX2_138 vdd gnd _1721_ _1721__bF$buf3 BUFX2
XBUFX2_139 vdd gnd _1721_ _1721__bF$buf2 BUFX2
XBUFX2_140 vdd gnd _1721_ _1721__bF$buf1 BUFX2
XBUFX2_141 vdd gnd _1721_ _1721__bF$buf0 BUFX2
XBUFX2_142 vdd gnd _4860_ _4860__bF$buf4 BUFX2
XBUFX2_143 vdd gnd _4860_ _4860__bF$buf3 BUFX2
XBUFX2_144 vdd gnd _4860_ _4860__bF$buf2 BUFX2
XBUFX2_145 vdd gnd _4860_ _4860__bF$buf1 BUFX2
XBUFX2_146 vdd gnd _4860_ _4860__bF$buf0 BUFX2
XBUFX2_147 vdd gnd _5739_ _5739__bF$buf7 BUFX2
XBUFX2_148 vdd gnd _5739_ _5739__bF$buf6 BUFX2
XBUFX2_149 vdd gnd _5739_ _5739__bF$buf5 BUFX2
XBUFX2_150 vdd gnd _5739_ _5739__bF$buf4 BUFX2
XBUFX2_151 vdd gnd _5739_ _5739__bF$buf3 BUFX2
XBUFX2_152 vdd gnd _5739_ _5739__bF$buf2 BUFX2
XBUFX2_153 vdd gnd _5739_ _5739__bF$buf1 BUFX2
XBUFX2_154 vdd gnd _5739_ _5739__bF$buf0 BUFX2
XBUFX2_155 vdd gnd _1697_ _1697__bF$buf4 BUFX2
XBUFX2_156 vdd gnd _1697_ _1697__bF$buf3 BUFX2
XBUFX2_157 vdd gnd _1697_ _1697__bF$buf2 BUFX2
XBUFX2_158 vdd gnd _1697_ _1697__bF$buf1 BUFX2
XBUFX2_159 vdd gnd _1697_ _1697__bF$buf0 BUFX2
XBUFX2_160 vdd gnd _1621_ _1621__bF$buf3 BUFX2
XBUFX2_161 vdd gnd _1621_ _1621__bF$buf2 BUFX2
XBUFX2_162 vdd gnd _1621_ _1621__bF$buf1 BUFX2
XBUFX2_163 vdd gnd _1621_ _1621__bF$buf0 BUFX2
XBUFX2_164 vdd gnd clk_hier0_bF$buf4 clk_bF$buf88 BUFX2
XBUFX2_165 vdd gnd clk_hier0_bF$buf1 clk_bF$buf87 BUFX2
XBUFX2_166 vdd gnd clk_hier0_bF$buf4 clk_bF$buf86 BUFX2
XBUFX2_167 vdd gnd clk_hier0_bF$buf8 clk_bF$buf85 BUFX2
XBUFX2_168 vdd gnd clk_hier0_bF$buf4 clk_bF$buf84 BUFX2
XBUFX2_169 vdd gnd clk_hier0_bF$buf7 clk_bF$buf83 BUFX2
XBUFX2_170 vdd gnd clk_hier0_bF$buf6 clk_bF$buf82 BUFX2
XBUFX2_171 vdd gnd clk_hier0_bF$buf3 clk_bF$buf81 BUFX2
XBUFX2_172 vdd gnd clk_hier0_bF$buf2 clk_bF$buf80 BUFX2
XBUFX2_173 vdd gnd clk_hier0_bF$buf7 clk_bF$buf79 BUFX2
XBUFX2_174 vdd gnd clk_hier0_bF$buf1 clk_bF$buf78 BUFX2
XBUFX2_175 vdd gnd clk_hier0_bF$buf1 clk_bF$buf77 BUFX2
XBUFX2_176 vdd gnd clk_hier0_bF$buf8 clk_bF$buf76 BUFX2
XBUFX2_177 vdd gnd clk_hier0_bF$buf5 clk_bF$buf75 BUFX2
XBUFX2_178 vdd gnd clk_hier0_bF$buf4 clk_bF$buf74 BUFX2
XBUFX2_179 vdd gnd clk_hier0_bF$buf5 clk_bF$buf73 BUFX2
XBUFX2_180 vdd gnd clk_hier0_bF$buf2 clk_bF$buf72 BUFX2
XBUFX2_181 vdd gnd clk_hier0_bF$buf6 clk_bF$buf71 BUFX2
XBUFX2_182 vdd gnd clk_hier0_bF$buf6 clk_bF$buf70 BUFX2
XBUFX2_183 vdd gnd clk_hier0_bF$buf1 clk_bF$buf69 BUFX2
XBUFX2_184 vdd gnd clk_hier0_bF$buf0 clk_bF$buf68 BUFX2
XBUFX2_185 vdd gnd clk_hier0_bF$buf4 clk_bF$buf67 BUFX2
XBUFX2_186 vdd gnd clk_hier0_bF$buf8 clk_bF$buf66 BUFX2
XBUFX2_187 vdd gnd clk_hier0_bF$buf1 clk_bF$buf65 BUFX2
XBUFX2_188 vdd gnd clk_hier0_bF$buf3 clk_bF$buf64 BUFX2
XBUFX2_189 vdd gnd clk_hier0_bF$buf3 clk_bF$buf63 BUFX2
XBUFX2_190 vdd gnd clk_hier0_bF$buf5 clk_bF$buf62 BUFX2
XBUFX2_191 vdd gnd clk_hier0_bF$buf3 clk_bF$buf61 BUFX2
XBUFX2_192 vdd gnd clk_hier0_bF$buf3 clk_bF$buf60 BUFX2
XBUFX2_193 vdd gnd clk_hier0_bF$buf8 clk_bF$buf59 BUFX2
XBUFX2_194 vdd gnd clk_hier0_bF$buf6 clk_bF$buf58 BUFX2
XBUFX2_195 vdd gnd clk_hier0_bF$buf0 clk_bF$buf57 BUFX2
XBUFX2_196 vdd gnd clk_hier0_bF$buf4 clk_bF$buf56 BUFX2
XBUFX2_197 vdd gnd clk_hier0_bF$buf3 clk_bF$buf55 BUFX2
XBUFX2_198 vdd gnd clk_hier0_bF$buf8 clk_bF$buf54 BUFX2
XBUFX2_199 vdd gnd clk_hier0_bF$buf1 clk_bF$buf53 BUFX2
XBUFX2_200 vdd gnd clk_hier0_bF$buf7 clk_bF$buf52 BUFX2
XBUFX2_201 vdd gnd clk_hier0_bF$buf3 clk_bF$buf51 BUFX2
XBUFX2_202 vdd gnd clk_hier0_bF$buf2 clk_bF$buf50 BUFX2
XBUFX2_203 vdd gnd clk_hier0_bF$buf4 clk_bF$buf49 BUFX2
XBUFX2_204 vdd gnd clk_hier0_bF$buf0 clk_bF$buf48 BUFX2
XBUFX2_205 vdd gnd clk_hier0_bF$buf5 clk_bF$buf47 BUFX2
XBUFX2_206 vdd gnd clk_hier0_bF$buf3 clk_bF$buf46 BUFX2
XBUFX2_207 vdd gnd clk_hier0_bF$buf2 clk_bF$buf45 BUFX2
XBUFX2_208 vdd gnd clk_hier0_bF$buf6 clk_bF$buf44 BUFX2
XBUFX2_209 vdd gnd clk_hier0_bF$buf0 clk_bF$buf43 BUFX2
XBUFX2_210 vdd gnd clk_hier0_bF$buf8 clk_bF$buf42 BUFX2
XBUFX2_211 vdd gnd clk_hier0_bF$buf8 clk_bF$buf41 BUFX2
XBUFX2_212 vdd gnd clk_hier0_bF$buf7 clk_bF$buf40 BUFX2
XBUFX2_213 vdd gnd clk_hier0_bF$buf6 clk_bF$buf39 BUFX2
XBUFX2_214 vdd gnd clk_hier0_bF$buf2 clk_bF$buf38 BUFX2
XBUFX2_215 vdd gnd clk_hier0_bF$buf4 clk_bF$buf37 BUFX2
XBUFX2_216 vdd gnd clk_hier0_bF$buf0 clk_bF$buf36 BUFX2
XBUFX2_217 vdd gnd clk_hier0_bF$buf8 clk_bF$buf35 BUFX2
XBUFX2_218 vdd gnd clk_hier0_bF$buf7 clk_bF$buf34 BUFX2
XBUFX2_219 vdd gnd clk_hier0_bF$buf4 clk_bF$buf33 BUFX2
XBUFX2_220 vdd gnd clk_hier0_bF$buf5 clk_bF$buf32 BUFX2
XBUFX2_221 vdd gnd clk_hier0_bF$buf2 clk_bF$buf31 BUFX2
XBUFX2_222 vdd gnd clk_hier0_bF$buf2 clk_bF$buf30 BUFX2
XBUFX2_223 vdd gnd clk_hier0_bF$buf2 clk_bF$buf29 BUFX2
XBUFX2_224 vdd gnd clk_hier0_bF$buf1 clk_bF$buf28 BUFX2
XBUFX2_225 vdd gnd clk_hier0_bF$buf3 clk_bF$buf27 BUFX2
XBUFX2_226 vdd gnd clk_hier0_bF$buf5 clk_bF$buf26 BUFX2
XBUFX2_227 vdd gnd clk_hier0_bF$buf8 clk_bF$buf25 BUFX2
XBUFX2_228 vdd gnd clk_hier0_bF$buf7 clk_bF$buf24 BUFX2
XBUFX2_229 vdd gnd clk_hier0_bF$buf2 clk_bF$buf23 BUFX2
XBUFX2_230 vdd gnd clk_hier0_bF$buf0 clk_bF$buf22 BUFX2
XBUFX2_231 vdd gnd clk_hier0_bF$buf0 clk_bF$buf21 BUFX2
XBUFX2_232 vdd gnd clk_hier0_bF$buf5 clk_bF$buf20 BUFX2
XBUFX2_233 vdd gnd clk_hier0_bF$buf1 clk_bF$buf19 BUFX2
XBUFX2_234 vdd gnd clk_hier0_bF$buf4 clk_bF$buf18 BUFX2
XBUFX2_235 vdd gnd clk_hier0_bF$buf0 clk_bF$buf17 BUFX2
XBUFX2_236 vdd gnd clk_hier0_bF$buf3 clk_bF$buf16 BUFX2
XBUFX2_237 vdd gnd clk_hier0_bF$buf5 clk_bF$buf15 BUFX2
XBUFX2_238 vdd gnd clk_hier0_bF$buf5 clk_bF$buf14 BUFX2
XBUFX2_239 vdd gnd clk_hier0_bF$buf7 clk_bF$buf13 BUFX2
XBUFX2_240 vdd gnd clk_hier0_bF$buf6 clk_bF$buf12 BUFX2
XBUFX2_241 vdd gnd clk_hier0_bF$buf7 clk_bF$buf11 BUFX2
XBUFX2_242 vdd gnd clk_hier0_bF$buf8 clk_bF$buf10 BUFX2
XBUFX2_243 vdd gnd clk_hier0_bF$buf6 clk_bF$buf9 BUFX2
XBUFX2_244 vdd gnd clk_hier0_bF$buf0 clk_bF$buf8 BUFX2
XBUFX2_245 vdd gnd clk_hier0_bF$buf6 clk_bF$buf7 BUFX2
XBUFX2_246 vdd gnd clk_hier0_bF$buf1 clk_bF$buf6 BUFX2
XBUFX2_247 vdd gnd clk_hier0_bF$buf7 clk_bF$buf5 BUFX2
XBUFX2_248 vdd gnd clk_hier0_bF$buf6 clk_bF$buf4 BUFX2
XBUFX2_249 vdd gnd clk_hier0_bF$buf5 clk_bF$buf3 BUFX2
XBUFX2_250 vdd gnd clk_hier0_bF$buf7 clk_bF$buf2 BUFX2
XBUFX2_251 vdd gnd clk_hier0_bF$buf2 clk_bF$buf1 BUFX2
XBUFX2_252 vdd gnd clk_hier0_bF$buf1 clk_bF$buf0 BUFX2
XBUFX2_253 vdd gnd _626_ _626__bF$buf3 BUFX2
XBUFX2_254 vdd gnd _626_ _626__bF$buf2 BUFX2
XBUFX2_255 vdd gnd _626_ _626__bF$buf1 BUFX2
XBUFX2_256 vdd gnd _626_ _626__bF$buf0 BUFX2
XBUFX2_257 vdd gnd _473_ _473__bF$buf3 BUFX2
XBUFX2_258 vdd gnd _473_ _473__bF$buf2 BUFX2
XBUFX2_259 vdd gnd _473_ _473__bF$buf1 BUFX2
XBUFX2_260 vdd gnd _473_ _473__bF$buf0 BUFX2
XBUFX2_261 vdd gnd _1597_ _1597__bF$buf3 BUFX2
XBUFX2_262 vdd gnd _1597_ _1597__bF$buf2 BUFX2
XBUFX2_263 vdd gnd _1597_ _1597__bF$buf1 BUFX2
XBUFX2_264 vdd gnd _1597_ _1597__bF$buf0 BUFX2
XBUFX2_265 vdd gnd _470_ _470__bF$buf3 BUFX2
XBUFX2_266 vdd gnd _470_ _470__bF$buf2 BUFX2
XBUFX2_267 vdd gnd _470_ _470__bF$buf1 BUFX2
XBUFX2_268 vdd gnd _470_ _470__bF$buf0 BUFX2
XBUFX2_269 vdd gnd _1615_ _1615__bF$buf3 BUFX2
XBUFX2_270 vdd gnd _1615_ _1615__bF$buf2 BUFX2
XBUFX2_271 vdd gnd _1615_ _1615__bF$buf1 BUFX2
XBUFX2_272 vdd gnd _1615_ _1615__bF$buf0 BUFX2
XBUFX2_273 vdd gnd _3396_ _3396__bF$buf4 BUFX2
XBUFX2_274 vdd gnd _3396_ _3396__bF$buf3 BUFX2
XBUFX2_275 vdd gnd _3396_ _3396__bF$buf2 BUFX2
XBUFX2_276 vdd gnd _3396_ _3396__bF$buf1 BUFX2
XBUFX2_277 vdd gnd _3396_ _3396__bF$buf0 BUFX2
XBUFX2_278 vdd gnd _4563_ _4563__bF$buf4 BUFX2
XBUFX2_279 vdd gnd _4563_ _4563__bF$buf3 BUFX2
XBUFX2_280 vdd gnd _4563_ _4563__bF$buf2 BUFX2
XBUFX2_281 vdd gnd _4563_ _4563__bF$buf1 BUFX2
XBUFX2_282 vdd gnd _4563_ _4563__bF$buf0 BUFX2
XBUFX2_283 vdd gnd _3414_ _3414__bF$buf4 BUFX2
XBUFX2_284 vdd gnd _3414_ _3414__bF$buf3 BUFX2
XBUFX2_285 vdd gnd _3414_ _3414__bF$buf2 BUFX2
XBUFX2_286 vdd gnd _3414_ _3414__bF$buf1 BUFX2
XBUFX2_287 vdd gnd _3414_ _3414__bF$buf0 BUFX2
XBUFX2_288 vdd gnd _4695_ _4695__bF$buf4 BUFX2
XBUFX2_289 vdd gnd _4695_ _4695__bF$buf3 BUFX2
XBUFX2_290 vdd gnd _4695_ _4695__bF$buf2 BUFX2
XBUFX2_291 vdd gnd _4695_ _4695__bF$buf1 BUFX2
XBUFX2_292 vdd gnd _4695_ _4695__bF$buf0 BUFX2
XBUFX2_293 vdd gnd _5289_ _5289__bF$buf6 BUFX2
XBUFX2_294 vdd gnd _5289_ _5289__bF$buf5 BUFX2
XBUFX2_295 vdd gnd _5289_ _5289__bF$buf4 BUFX2
XBUFX2_296 vdd gnd _5289_ _5289__bF$buf3 BUFX2
XBUFX2_297 vdd gnd _5289_ _5289__bF$buf2 BUFX2
XBUFX2_298 vdd gnd _5289_ _5289__bF$buf1 BUFX2
XBUFX2_299 vdd gnd _5289_ _5289__bF$buf0 BUFX2
XBUFX2_300 vdd gnd _5730_ _5730__bF$buf3 BUFX2
XBUFX2_301 vdd gnd _5730_ _5730__bF$buf2 BUFX2
XBUFX2_302 vdd gnd _5730_ _5730__bF$buf1 BUFX2
XBUFX2_303 vdd gnd _5730_ _5730__bF$buf0 BUFX2
XBUFX2_304 vdd gnd _617_ _617__bF$buf3 BUFX2
XBUFX2_305 vdd gnd _617_ _617__bF$buf2 BUFX2
XBUFX2_306 vdd gnd _617_ _617__bF$buf1 BUFX2
XBUFX2_307 vdd gnd _617_ _617__bF$buf0 BUFX2
XBUFX2_308 vdd gnd _1609_ _1609__bF$buf3 BUFX2
XBUFX2_309 vdd gnd _1609_ _1609__bF$buf2 BUFX2
XBUFX2_310 vdd gnd _1609_ _1609__bF$buf1 BUFX2
XBUFX2_311 vdd gnd _1609_ _1609__bF$buf0 BUFX2
XBUFX2_312 vdd gnd _1591_ _1591__bF$buf3 BUFX2
XBUFX2_313 vdd gnd _1591_ _1591__bF$buf2 BUFX2
XBUFX2_314 vdd gnd _1591_ _1591__bF$buf1 BUFX2
XBUFX2_315 vdd gnd _1591_ _1591__bF$buf0 BUFX2
XBUFX2_316 vdd gnd CORE_ULA_REGB_Stall CORE_ULA_REGB_Stall_bF$buf4 BUFX2
XBUFX2_317 vdd gnd CORE_ULA_REGB_Stall CORE_ULA_REGB_Stall_bF$buf3 BUFX2
XBUFX2_318 vdd gnd CORE_ULA_REGB_Stall CORE_ULA_REGB_Stall_bF$buf2 BUFX2
XBUFX2_319 vdd gnd CORE_ULA_REGB_Stall CORE_ULA_REGB_Stall_bF$buf1 BUFX2
XBUFX2_320 vdd gnd CORE_ULA_REGB_Stall CORE_ULA_REGB_Stall_bF$buf0 BUFX2
XBUFX2_321 vdd gnd _3411_ _3411__bF$buf4 BUFX2
XBUFX2_322 vdd gnd _3411_ _3411__bF$buf3 BUFX2
XBUFX2_323 vdd gnd _3411_ _3411__bF$buf2 BUFX2
XBUFX2_324 vdd gnd _3411_ _3411__bF$buf1 BUFX2
XBUFX2_325 vdd gnd _3411_ _3411__bF$buf0 BUFX2
XBUFX2_326 vdd gnd _3390_ _3390__bF$buf4 BUFX2
XBUFX2_327 vdd gnd _3390_ _3390__bF$buf3 BUFX2
XBUFX2_328 vdd gnd _3390_ _3390__bF$buf2 BUFX2
XBUFX2_329 vdd gnd _3390_ _3390__bF$buf1 BUFX2
XBUFX2_330 vdd gnd _3390_ _3390__bF$buf0 BUFX2
XBUFX2_331 vdd gnd _1741_ _1741__bF$buf4 BUFX2
XBUFX2_332 vdd gnd _1741_ _1741__bF$buf3 BUFX2
XBUFX2_333 vdd gnd _1741_ _1741__bF$buf2 BUFX2
XBUFX2_334 vdd gnd _1741_ _1741__bF$buf1 BUFX2
XBUFX2_335 vdd gnd _1741_ _1741__bF$buf0 BUFX2
XBUFX2_336 vdd gnd _1682_ _1682__bF$buf4 BUFX2
XBUFX2_337 vdd gnd _1682_ _1682__bF$buf3 BUFX2
XBUFX2_338 vdd gnd _1682_ _1682__bF$buf2 BUFX2
XBUFX2_339 vdd gnd _1682_ _1682__bF$buf1 BUFX2
XBUFX2_340 vdd gnd _1682_ _1682__bF$buf0 BUFX2
XBUFX2_341 vdd gnd _1585_ _1585__bF$buf3 BUFX2
XBUFX2_342 vdd gnd _1585_ _1585__bF$buf2 BUFX2
XBUFX2_343 vdd gnd _1585_ _1585__bF$buf1 BUFX2
XBUFX2_344 vdd gnd _1585_ _1585__bF$buf0 BUFX2
XBUFX2_345 vdd gnd _4325_ _4325__bF$buf4 BUFX2
XBUFX2_346 vdd gnd _4325_ _4325__bF$buf3 BUFX2
XBUFX2_347 vdd gnd _4325_ _4325__bF$buf2 BUFX2
XBUFX2_348 vdd gnd _4325_ _4325__bF$buf1 BUFX2
XBUFX2_349 vdd gnd _4325_ _4325__bF$buf0 BUFX2
XBUFX2_350 vdd gnd _1603_ _1603__bF$buf3 BUFX2
XBUFX2_351 vdd gnd _1603_ _1603__bF$buf2 BUFX2
XBUFX2_352 vdd gnd _1603_ _1603__bF$buf1 BUFX2
XBUFX2_353 vdd gnd _1603_ _1603__bF$buf0 BUFX2
XBUFX2_354 vdd gnd ULA.B<3> ULA.B_3_bF$buf7 BUFX2
XBUFX2_355 vdd gnd ULA.B<3> ULA.B_3_bF$buf6 BUFX2
XBUFX2_356 vdd gnd ULA.B<3> ULA.B_3_bF$buf5 BUFX2
XBUFX2_357 vdd gnd ULA.B<3> ULA.B_3_bF$buf4 BUFX2
XBUFX2_358 vdd gnd ULA.B<3> ULA.B_3_bF$buf3 BUFX2
XBUFX2_359 vdd gnd ULA.B<3> ULA.B_3_bF$buf2 BUFX2
XBUFX2_360 vdd gnd ULA.B<3> ULA.B_3_bF$buf1 BUFX2
XBUFX2_361 vdd gnd ULA.B<3> ULA.B_3_bF$buf0 BUFX2
XBUFX2_362 vdd gnd _1735_ _1735__bF$buf4 BUFX2
XBUFX2_363 vdd gnd _1735_ _1735__bF$buf3 BUFX2
XBUFX2_364 vdd gnd _1735_ _1735__bF$buf2 BUFX2
XBUFX2_365 vdd gnd _1735_ _1735__bF$buf1 BUFX2
XBUFX2_366 vdd gnd _1735_ _1735__bF$buf0 BUFX2
XBUFX2_367 vdd gnd _1579_ _1579__bF$buf3 BUFX2
XBUFX2_368 vdd gnd _1579_ _1579__bF$buf2 BUFX2
XBUFX2_369 vdd gnd _1579_ _1579__bF$buf1 BUFX2
XBUFX2_370 vdd gnd _1579_ _1579__bF$buf0 BUFX2
XBUFX2_371 vdd gnd ULA.B<0> ULA.B_0_bF$buf7 BUFX2
XBUFX2_372 vdd gnd ULA.B<0> ULA.B_0_bF$buf6 BUFX2
XBUFX2_373 vdd gnd ULA.B<0> ULA.B_0_bF$buf5 BUFX2
XBUFX2_374 vdd gnd ULA.B<0> ULA.B_0_bF$buf4 BUFX2
XBUFX2_375 vdd gnd ULA.B<0> ULA.B_0_bF$buf3 BUFX2
XBUFX2_376 vdd gnd ULA.B<0> ULA.B_0_bF$buf2 BUFX2
XBUFX2_377 vdd gnd ULA.B<0> ULA.B_0_bF$buf1 BUFX2
XBUFX2_378 vdd gnd ULA.B<0> ULA.B_0_bF$buf0 BUFX2
XBUFX2_379 vdd gnd _3381_ _3381__bF$buf4 BUFX2
XBUFX2_380 vdd gnd _3381_ _3381__bF$buf3 BUFX2
XBUFX2_381 vdd gnd _3381_ _3381__bF$buf2 BUFX2
XBUFX2_382 vdd gnd _3381_ _3381__bF$buf1 BUFX2
XBUFX2_383 vdd gnd _3381_ _3381__bF$buf0 BUFX2
XBUFX2_384 vdd gnd _4395_ _4395__bF$buf4 BUFX2
XBUFX2_385 vdd gnd _4395_ _4395__bF$buf3 BUFX2
XBUFX2_386 vdd gnd _4395_ _4395__bF$buf2 BUFX2
XBUFX2_387 vdd gnd _4395_ _4395__bF$buf1 BUFX2
XBUFX2_388 vdd gnd _4395_ _4395__bF$buf0 BUFX2
XBUFX2_389 vdd gnd _1635_ _1635__bF$buf3 BUFX2
XBUFX2_390 vdd gnd _1635_ _1635__bF$buf2 BUFX2
XBUFX2_391 vdd gnd _1635_ _1635__bF$buf1 BUFX2
XBUFX2_392 vdd gnd _1635_ _1635__bF$buf0 BUFX2
XBUFX2_393 vdd gnd _3378_ _3378__bF$buf4 BUFX2
XBUFX2_394 vdd gnd _3378_ _3378__bF$buf3 BUFX2
XBUFX2_395 vdd gnd _3378_ _3378__bF$buf2 BUFX2
XBUFX2_396 vdd gnd _3378_ _3378__bF$buf1 BUFX2
XBUFX2_397 vdd gnd _3378_ _3378__bF$buf0 BUFX2
XBUFX2_398 vdd gnd _5524_ _5524__bF$buf3 BUFX2
XBUFX2_399 vdd gnd _5524_ _5524__bF$buf2 BUFX2
XBUFX2_400 vdd gnd _5524_ _5524__bF$buf1 BUFX2
XBUFX2_401 vdd gnd _5524_ _5524__bF$buf0 BUFX2
XBUFX2_402 vdd gnd _487_ _487__bF$buf3 BUFX2
XBUFX2_403 vdd gnd _487_ _487__bF$buf2 BUFX2
XBUFX2_404 vdd gnd _487_ _487__bF$buf1 BUFX2
XBUFX2_405 vdd gnd _487_ _487__bF$buf0 BUFX2
XBUFX2_406 vdd gnd _505_ _505__bF$buf3 BUFX2
XBUFX2_407 vdd gnd _505_ _505__bF$buf2 BUFX2
XBUFX2_408 vdd gnd _505_ _505__bF$buf1 BUFX2
XBUFX2_409 vdd gnd _505_ _505__bF$buf0 BUFX2
XBUFX2_410 vdd gnd _1573__hier0_bF$buf7 _1573__bF$buf78 BUFX2
XBUFX2_411 vdd gnd _1573__hier0_bF$buf1 _1573__bF$buf77 BUFX2
XBUFX2_412 vdd gnd _1573__hier0_bF$buf4 _1573__bF$buf76 BUFX2
XBUFX2_413 vdd gnd _1573__hier0_bF$buf0 _1573__bF$buf75 BUFX2
XBUFX2_414 vdd gnd _1573__hier0_bF$buf2 _1573__bF$buf74 BUFX2
XBUFX2_415 vdd gnd _1573__hier0_bF$buf1 _1573__bF$buf73 BUFX2
XBUFX2_416 vdd gnd _1573__hier0_bF$buf3 _1573__bF$buf72 BUFX2
XBUFX2_417 vdd gnd _1573__hier0_bF$buf6 _1573__bF$buf71 BUFX2
XBUFX2_418 vdd gnd _1573__hier0_bF$buf7 _1573__bF$buf70 BUFX2
XBUFX2_419 vdd gnd _1573__hier0_bF$buf4 _1573__bF$buf69 BUFX2
XBUFX2_420 vdd gnd _1573__hier0_bF$buf2 _1573__bF$buf68 BUFX2
XBUFX2_421 vdd gnd _1573__hier0_bF$buf3 _1573__bF$buf67 BUFX2
XBUFX2_422 vdd gnd _1573__hier0_bF$buf3 _1573__bF$buf66 BUFX2
XBUFX2_423 vdd gnd _1573__hier0_bF$buf0 _1573__bF$buf65 BUFX2
XBUFX2_424 vdd gnd _1573__hier0_bF$buf1 _1573__bF$buf64 BUFX2
XBUFX2_425 vdd gnd _1573__hier0_bF$buf7 _1573__bF$buf63 BUFX2
XBUFX2_426 vdd gnd _1573__hier0_bF$buf1 _1573__bF$buf62 BUFX2
XBUFX2_427 vdd gnd _1573__hier0_bF$buf5 _1573__bF$buf61 BUFX2
XBUFX2_428 vdd gnd _1573__hier0_bF$buf2 _1573__bF$buf60 BUFX2
XBUFX2_429 vdd gnd _1573__hier0_bF$buf5 _1573__bF$buf59 BUFX2
XBUFX2_430 vdd gnd _1573__hier0_bF$buf5 _1573__bF$buf58 BUFX2
XBUFX2_431 vdd gnd _1573__hier0_bF$buf4 _1573__bF$buf57 BUFX2
XBUFX2_432 vdd gnd _1573__hier0_bF$buf5 _1573__bF$buf56 BUFX2
XBUFX2_433 vdd gnd _1573__hier0_bF$buf4 _1573__bF$buf55 BUFX2
XBUFX2_434 vdd gnd _1573__hier0_bF$buf1 _1573__bF$buf54 BUFX2
XBUFX2_435 vdd gnd _1573__hier0_bF$buf7 _1573__bF$buf53 BUFX2
XBUFX2_436 vdd gnd _1573__hier0_bF$buf2 _1573__bF$buf52 BUFX2
XBUFX2_437 vdd gnd _1573__hier0_bF$buf0 _1573__bF$buf51 BUFX2
XBUFX2_438 vdd gnd _1573__hier0_bF$buf2 _1573__bF$buf50 BUFX2
XBUFX2_439 vdd gnd _1573__hier0_bF$buf0 _1573__bF$buf49 BUFX2
XBUFX2_440 vdd gnd _1573__hier0_bF$buf5 _1573__bF$buf48 BUFX2
XBUFX2_441 vdd gnd _1573__hier0_bF$buf5 _1573__bF$buf47 BUFX2
XBUFX2_442 vdd gnd _1573__hier0_bF$buf3 _1573__bF$buf46 BUFX2
XBUFX2_443 vdd gnd _1573__hier0_bF$buf7 _1573__bF$buf45 BUFX2
XBUFX2_444 vdd gnd _1573__hier0_bF$buf7 _1573__bF$buf44 BUFX2
XBUFX2_445 vdd gnd _1573__hier0_bF$buf6 _1573__bF$buf43 BUFX2
XBUFX2_446 vdd gnd _1573__hier0_bF$buf0 _1573__bF$buf42 BUFX2
XBUFX2_447 vdd gnd _1573__hier0_bF$buf0 _1573__bF$buf41 BUFX2
XBUFX2_448 vdd gnd _1573__hier0_bF$buf6 _1573__bF$buf40 BUFX2
XBUFX2_449 vdd gnd _1573__hier0_bF$buf6 _1573__bF$buf39 BUFX2
XBUFX2_450 vdd gnd _1573__hier0_bF$buf3 _1573__bF$buf38 BUFX2
XBUFX2_451 vdd gnd _1573__hier0_bF$buf4 _1573__bF$buf37 BUFX2
XBUFX2_452 vdd gnd _1573__hier0_bF$buf5 _1573__bF$buf36 BUFX2
XBUFX2_453 vdd gnd _1573__hier0_bF$buf4 _1573__bF$buf35 BUFX2
XBUFX2_454 vdd gnd _1573__hier0_bF$buf5 _1573__bF$buf34 BUFX2
XBUFX2_455 vdd gnd _1573__hier0_bF$buf0 _1573__bF$buf33 BUFX2
XBUFX2_456 vdd gnd _1573__hier0_bF$buf6 _1573__bF$buf32 BUFX2
XBUFX2_457 vdd gnd _1573__hier0_bF$buf2 _1573__bF$buf31 BUFX2
XBUFX2_458 vdd gnd _1573__hier0_bF$buf6 _1573__bF$buf30 BUFX2
XBUFX2_459 vdd gnd _1573__hier0_bF$buf1 _1573__bF$buf29 BUFX2
XBUFX2_460 vdd gnd _1573__hier0_bF$buf2 _1573__bF$buf28 BUFX2
XBUFX2_461 vdd gnd _1573__hier0_bF$buf3 _1573__bF$buf27 BUFX2
XBUFX2_462 vdd gnd _1573__hier0_bF$buf2 _1573__bF$buf26 BUFX2
XBUFX2_463 vdd gnd _1573__hier0_bF$buf1 _1573__bF$buf25 BUFX2
XBUFX2_464 vdd gnd _1573__hier0_bF$buf1 _1573__bF$buf24 BUFX2
XBUFX2_465 vdd gnd _1573__hier0_bF$buf5 _1573__bF$buf23 BUFX2
XBUFX2_466 vdd gnd _1573__hier0_bF$buf4 _1573__bF$buf22 BUFX2
XBUFX2_467 vdd gnd _1573__hier0_bF$buf7 _1573__bF$buf21 BUFX2
XBUFX2_468 vdd gnd _1573__hier0_bF$buf7 _1573__bF$buf20 BUFX2
XBUFX2_469 vdd gnd _1573__hier0_bF$buf5 _1573__bF$buf19 BUFX2
XBUFX2_470 vdd gnd _1573__hier0_bF$buf6 _1573__bF$buf18 BUFX2
XBUFX2_471 vdd gnd _1573__hier0_bF$buf4 _1573__bF$buf17 BUFX2
XBUFX2_472 vdd gnd _1573__hier0_bF$buf6 _1573__bF$buf16 BUFX2
XBUFX2_473 vdd gnd _1573__hier0_bF$buf3 _1573__bF$buf15 BUFX2
XBUFX2_474 vdd gnd _1573__hier0_bF$buf7 _1573__bF$buf14 BUFX2
XBUFX2_475 vdd gnd _1573__hier0_bF$buf1 _1573__bF$buf13 BUFX2
XBUFX2_476 vdd gnd _1573__hier0_bF$buf4 _1573__bF$buf12 BUFX2
XBUFX2_477 vdd gnd _1573__hier0_bF$buf3 _1573__bF$buf11 BUFX2
XBUFX2_478 vdd gnd _1573__hier0_bF$buf0 _1573__bF$buf10 BUFX2
XBUFX2_479 vdd gnd _1573__hier0_bF$buf7 _1573__bF$buf9 BUFX2
XBUFX2_480 vdd gnd _1573__hier0_bF$buf2 _1573__bF$buf8 BUFX2
XBUFX2_481 vdd gnd _1573__hier0_bF$buf6 _1573__bF$buf7 BUFX2
XBUFX2_482 vdd gnd _1573__hier0_bF$buf6 _1573__bF$buf6 BUFX2
XBUFX2_483 vdd gnd _1573__hier0_bF$buf4 _1573__bF$buf5 BUFX2
XBUFX2_484 vdd gnd _1573__hier0_bF$buf0 _1573__bF$buf4 BUFX2
XBUFX2_485 vdd gnd _1573__hier0_bF$buf3 _1573__bF$buf3 BUFX2
XBUFX2_486 vdd gnd _1573__hier0_bF$buf1 _1573__bF$buf2 BUFX2
XBUFX2_487 vdd gnd _1573__hier0_bF$buf2 _1573__bF$buf1 BUFX2
XBUFX2_488 vdd gnd _1573__hier0_bF$buf3 _1573__bF$buf0 BUFX2
XBUFX2_489 vdd gnd _484_ _484__bF$buf3 BUFX2
XBUFX2_490 vdd gnd _484_ _484__bF$buf2 BUFX2
XBUFX2_491 vdd gnd _484_ _484__bF$buf1 BUFX2
XBUFX2_492 vdd gnd _484_ _484__bF$buf0 BUFX2
XBUFX2_493 vdd gnd _1629_ _1629__bF$buf3 BUFX2
XBUFX2_494 vdd gnd _1629_ _1629__bF$buf2 BUFX2
XBUFX2_495 vdd gnd _1629_ _1629__bF$buf1 BUFX2
XBUFX2_496 vdd gnd _1629_ _1629__bF$buf0 BUFX2
XBUFX2_497 vdd gnd _4827_ _4827__bF$buf4 BUFX2
XBUFX2_498 vdd gnd _4827_ _4827__bF$buf3 BUFX2
XBUFX2_499 vdd gnd _4827_ _4827__bF$buf2 BUFX2
XBUFX2_500 vdd gnd _4827_ _4827__bF$buf1 BUFX2
XBUFX2_501 vdd gnd _4827_ _4827__bF$buf0 BUFX2
XBUFX2_502 vdd gnd INTERRUPT_flag INTERRUPT_flag_bF$buf15 BUFX2
XBUFX2_503 vdd gnd INTERRUPT_flag INTERRUPT_flag_bF$buf14 BUFX2
XBUFX2_504 vdd gnd INTERRUPT_flag INTERRUPT_flag_bF$buf13 BUFX2
XBUFX2_505 vdd gnd INTERRUPT_flag INTERRUPT_flag_bF$buf12 BUFX2
XBUFX2_506 vdd gnd INTERRUPT_flag INTERRUPT_flag_bF$buf11 BUFX2
XBUFX2_507 vdd gnd INTERRUPT_flag INTERRUPT_flag_bF$buf10 BUFX2
XBUFX2_508 vdd gnd INTERRUPT_flag INTERRUPT_flag_bF$buf9 BUFX2
XBUFX2_509 vdd gnd INTERRUPT_flag INTERRUPT_flag_bF$buf8 BUFX2
XBUFX2_510 vdd gnd INTERRUPT_flag INTERRUPT_flag_bF$buf7 BUFX2
XBUFX2_511 vdd gnd INTERRUPT_flag INTERRUPT_flag_bF$buf6 BUFX2