* XSpice netlist created from SPICE and liberty sources by spi2xspice.py
*SPICE netlist created from BLIF module NRISC_UP by blif2BSpice
.subckt NRISC_UP a_vdd a_gnd a_IDATA_CORE_out_0_ a_IDATA_CORE_out_1_ a_IDATA_CORE_out_2_ a_IDATA_CORE_out_3_ a_IDATA_CORE_out_4_ a_IDATA_CORE_out_5_ a_IDATA_CORE_out_6_ a_IDATA_CORE_out_7_ a_IDATA_CORE_out_8_ a_IDATA_CORE_out_9_ a_IDATA_CORE_out_10_ a_IDATA_CORE_out_11_ a_IDATA_CORE_out_12_ a_IDATA_CORE_out_13_ a_IDATA_CORE_out_14_ a_IDATA_CORE_out_15_ a_IDATA_CORE_out_16_ a_IDATA_CORE_out_17_ a_IDATA_CORE_out_18_ a_IDATA_CORE_out_19_ a_IDATA_CORE_out_20_ a_IDATA_CORE_out_21_ a_IDATA_CORE_out_22_ a_IDATA_CORE_out_23_ a_IDATA_CORE_out_24_ a_IDATA_CORE_out_25_ a_IDATA_CORE_out_26_ a_IDATA_CORE_out_27_ a_IDATA_CORE_out_28_ a_IDATA_CORE_out_29_ a_IDATA_CORE_out_30_ a_IDATA_CORE_out_31_ a_DDATA_CORE_out_0_ a_DDATA_CORE_out_1_ a_DDATA_CORE_out_2_ a_DDATA_CORE_out_3_ a_DDATA_CORE_out_4_ a_DDATA_CORE_out_5_ a_DDATA_CORE_out_6_ a_DDATA_CORE_out_7_ a_DDATA_CORE_out_8_ a_DDATA_CORE_out_9_ a_DDATA_CORE_out_10_ a_DDATA_CORE_out_11_ a_DDATA_CORE_out_12_ a_DDATA_CORE_out_13_ a_DDATA_CORE_out_14_ a_DDATA_CORE_out_15_ a_DDATA_CORE_out_16_ a_DDATA_CORE_out_17_ a_DDATA_CORE_out_18_ a_DDATA_CORE_out_19_ a_DDATA_CORE_out_20_ a_DDATA_CORE_out_21_ a_DDATA_CORE_out_22_ a_DDATA_CORE_out_23_ a_DDATA_CORE_out_24_ a_DDATA_CORE_out_25_ a_DDATA_CORE_out_26_ a_DDATA_CORE_out_27_ a_DDATA_CORE_out_28_ a_DDATA_CORE_out_29_ a_DDATA_CORE_out_30_ a_DDATA_CORE_out_31_ a_CORE_ctrl_0_ a_CORE_ctrl_1_ a_CORE_ctrl_2_ a_INTERRUPT_ch_0_ a_INTERRUPT_ch_1_ a_INTERRUPT_ch_2_ a_INTERRUPT_ch_3_ a_INTERRUPT_ch_4_ a_INTERRUPT_ch_5_ a_INTERRUPT_ch_6_ a_INTERRUPT_ch_7_ a_INTERRUPT_flag a_clk a_rst a_IDATA_CORE_addr_0_ a_IDATA_CORE_addr_1_ a_IDATA_CORE_addr_2_ a_IDATA_CORE_addr_3_ a_IDATA_CORE_addr_4_ a_IDATA_CORE_addr_5_ a_IDATA_CORE_addr_6_ a_IDATA_CORE_addr_7_ a_IDATA_CORE_clk a_DDATA_CORE_addr_0_ a_DDATA_CORE_addr_1_ a_DDATA_CORE_addr_2_ a_DDATA_CORE_addr_3_ a_DDATA_CORE_addr_4_ a_DDATA_CORE_addr_5_ a_DDATA_CORE_addr_6_ a_DDATA_CORE_addr_7_ a_DDATA_CORE_in_0_ a_DDATA_CORE_in_1_ a_DDATA_CORE_in_2_ a_DDATA_CORE_in_3_ a_DDATA_CORE_in_4_ a_DDATA_CORE_in_5_ a_DDATA_CORE_in_6_ a_DDATA_CORE_in_7_ a_DDATA_CORE_in_8_ a_DDATA_CORE_in_9_ a_DDATA_CORE_in_10_ a_DDATA_CORE_in_11_ a_DDATA_CORE_in_12_ a_DDATA_CORE_in_13_ a_DDATA_CORE_in_14_ a_DDATA_CORE_in_15_ a_DDATA_CORE_in_16_ a_DDATA_CORE_in_17_ a_DDATA_CORE_in_18_ a_DDATA_CORE_in_19_ a_DDATA_CORE_in_20_ a_DDATA_CORE_in_21_ a_DDATA_CORE_in_22_ a_DDATA_CORE_in_23_ a_DDATA_CORE_in_24_ a_DDATA_CORE_in_25_ a_DDATA_CORE_in_26_ a_DDATA_CORE_in_27_ a_DDATA_CORE_in_28_ a_DDATA_CORE_in_29_ a_DDATA_CORE_in_30_ a_DDATA_CORE_in_31_ a_DDATA_CORE_load a_DDATA_CORE_write a_DDATA_CORE_ctrl_0_ a_DDATA_CORE_ctrl_1_ a_DDATA_CORE_ctrl_2_
ABUFX2_1 [clk] clk_hier0_bF$buf8 d_lut_BUFX2
ABUFX2_2 [clk] clk_hier0_bF$buf7 d_lut_BUFX2
ABUFX2_3 [clk] clk_hier0_bF$buf6 d_lut_BUFX2
ABUFX2_4 [clk] clk_hier0_bF$buf5 d_lut_BUFX2
ABUFX2_5 [clk] clk_hier0_bF$buf4 d_lut_BUFX2
ABUFX2_6 [clk] clk_hier0_bF$buf3 d_lut_BUFX2
ABUFX2_7 [clk] clk_hier0_bF$buf2 d_lut_BUFX2
ABUFX2_8 [clk] clk_hier0_bF$buf1 d_lut_BUFX2
ABUFX2_9 [clk] clk_hier0_bF$buf0 d_lut_BUFX2
ABUFX2_10 [INTERRUPT_flag_bF$buf10] INTERRUPT_flag_bF$buf10_bF$buf3 d_lut_BUFX2
ABUFX2_11 [INTERRUPT_flag_bF$buf10] INTERRUPT_flag_bF$buf10_bF$buf2 d_lut_BUFX2
ABUFX2_12 [INTERRUPT_flag_bF$buf10] INTERRUPT_flag_bF$buf10_bF$buf1 d_lut_BUFX2
ABUFX2_13 [INTERRUPT_flag_bF$buf10] INTERRUPT_flag_bF$buf10_bF$buf0 d_lut_BUFX2
ABUFX2_14 [INTERRUPT_flag_bF$buf11] INTERRUPT_flag_bF$buf11_bF$buf3 d_lut_BUFX2
ABUFX2_15 [INTERRUPT_flag_bF$buf11] INTERRUPT_flag_bF$buf11_bF$buf2 d_lut_BUFX2
ABUFX2_16 [INTERRUPT_flag_bF$buf11] INTERRUPT_flag_bF$buf11_bF$buf1 d_lut_BUFX2
ABUFX2_17 [INTERRUPT_flag_bF$buf11] INTERRUPT_flag_bF$buf11_bF$buf0 d_lut_BUFX2
ABUFX2_18 [INTERRUPT_flag_bF$buf12] INTERRUPT_flag_bF$buf12_bF$buf3 d_lut_BUFX2
ABUFX2_19 [INTERRUPT_flag_bF$buf12] INTERRUPT_flag_bF$buf12_bF$buf2 d_lut_BUFX2
ABUFX2_20 [INTERRUPT_flag_bF$buf12] INTERRUPT_flag_bF$buf12_bF$buf1 d_lut_BUFX2
ABUFX2_21 [INTERRUPT_flag_bF$buf12] INTERRUPT_flag_bF$buf12_bF$buf0 d_lut_BUFX2
ABUFX2_22 [INTERRUPT_flag_bF$buf13] INTERRUPT_flag_bF$buf13_bF$buf3 d_lut_BUFX2
ABUFX2_23 [INTERRUPT_flag_bF$buf13] INTERRUPT_flag_bF$buf13_bF$buf2 d_lut_BUFX2
ABUFX2_24 [INTERRUPT_flag_bF$buf13] INTERRUPT_flag_bF$buf13_bF$buf1 d_lut_BUFX2
ABUFX2_25 [INTERRUPT_flag_bF$buf13] INTERRUPT_flag_bF$buf13_bF$buf0 d_lut_BUFX2
ABUFX2_26 [INTERRUPT_flag_bF$buf14] INTERRUPT_flag_bF$buf14_bF$buf3 d_lut_BUFX2
ABUFX2_27 [INTERRUPT_flag_bF$buf14] INTERRUPT_flag_bF$buf14_bF$buf2 d_lut_BUFX2
ABUFX2_28 [INTERRUPT_flag_bF$buf14] INTERRUPT_flag_bF$buf14_bF$buf1 d_lut_BUFX2
ABUFX2_29 [INTERRUPT_flag_bF$buf14] INTERRUPT_flag_bF$buf14_bF$buf0 d_lut_BUFX2
ABUFX2_30 [INTERRUPT_flag_bF$buf15] INTERRUPT_flag_bF$buf15_bF$buf3 d_lut_BUFX2
ABUFX2_31 [INTERRUPT_flag_bF$buf15] INTERRUPT_flag_bF$buf15_bF$buf2 d_lut_BUFX2
ABUFX2_32 [INTERRUPT_flag_bF$buf15] INTERRUPT_flag_bF$buf15_bF$buf1 d_lut_BUFX2
ABUFX2_33 [INTERRUPT_flag_bF$buf15] INTERRUPT_flag_bF$buf15_bF$buf0 d_lut_BUFX2
ABUFX2_34 [_1568__bF$buf15] _1568__bF$buf15_bF$buf3 d_lut_BUFX2
ABUFX2_35 [_1568__bF$buf15] _1568__bF$buf15_bF$buf2 d_lut_BUFX2
ABUFX2_36 [_1568__bF$buf15] _1568__bF$buf15_bF$buf1 d_lut_BUFX2
ABUFX2_37 [_1568__bF$buf15] _1568__bF$buf15_bF$buf0 d_lut_BUFX2
ABUFX2_38 [_1573_] _1573__hier0_bF$buf7 d_lut_BUFX2
ABUFX2_39 [_1573_] _1573__hier0_bF$buf6 d_lut_BUFX2
ABUFX2_40 [_1573_] _1573__hier0_bF$buf5 d_lut_BUFX2
ABUFX2_41 [_1573_] _1573__hier0_bF$buf4 d_lut_BUFX2
ABUFX2_42 [_1573_] _1573__hier0_bF$buf3 d_lut_BUFX2
ABUFX2_43 [_1573_] _1573__hier0_bF$buf2 d_lut_BUFX2
ABUFX2_44 [_1573_] _1573__hier0_bF$buf1 d_lut_BUFX2
ABUFX2_45 [_1573_] _1573__hier0_bF$buf0 d_lut_BUFX2
ABUFX2_46 [INTERRUPT_flag_bF$buf7] INTERRUPT_flag_bF$buf7_bF$buf3 d_lut_BUFX2
ABUFX2_47 [INTERRUPT_flag_bF$buf7] INTERRUPT_flag_bF$buf7_bF$buf2 d_lut_BUFX2
ABUFX2_48 [INTERRUPT_flag_bF$buf7] INTERRUPT_flag_bF$buf7_bF$buf1 d_lut_BUFX2
ABUFX2_49 [INTERRUPT_flag_bF$buf7] INTERRUPT_flag_bF$buf7_bF$buf0 d_lut_BUFX2
ABUFX2_50 [INTERRUPT_flag_bF$buf8] INTERRUPT_flag_bF$buf8_bF$buf3 d_lut_BUFX2
ABUFX2_51 [INTERRUPT_flag_bF$buf8] INTERRUPT_flag_bF$buf8_bF$buf2 d_lut_BUFX2
ABUFX2_52 [INTERRUPT_flag_bF$buf8] INTERRUPT_flag_bF$buf8_bF$buf1 d_lut_BUFX2
ABUFX2_53 [INTERRUPT_flag_bF$buf8] INTERRUPT_flag_bF$buf8_bF$buf0 d_lut_BUFX2
ABUFX2_54 [INTERRUPT_flag_bF$buf9] INTERRUPT_flag_bF$buf9_bF$buf3 d_lut_BUFX2
ABUFX2_55 [INTERRUPT_flag_bF$buf9] INTERRUPT_flag_bF$buf9_bF$buf2 d_lut_BUFX2
ABUFX2_56 [INTERRUPT_flag_bF$buf9] INTERRUPT_flag_bF$buf9_bF$buf1 d_lut_BUFX2
ABUFX2_57 [INTERRUPT_flag_bF$buf9] INTERRUPT_flag_bF$buf9_bF$buf0 d_lut_BUFX2
ABUFX2_58 [_3403_] _3403__bF$buf4 d_lut_BUFX2
ABUFX2_59 [_3403_] _3403__bF$buf3 d_lut_BUFX2
ABUFX2_60 [_3403_] _3403__bF$buf2 d_lut_BUFX2
ABUFX2_61 [_3403_] _3403__bF$buf1 d_lut_BUFX2
ABUFX2_62 [_3403_] _3403__bF$buf0 d_lut_BUFX2
ABUFX2_63 [_4361_] _4361__bF$buf4 d_lut_BUFX2
ABUFX2_64 [_4361_] _4361__bF$buf3 d_lut_BUFX2
ABUFX2_65 [_4361_] _4361__bF$buf2 d_lut_BUFX2
ABUFX2_66 [_4361_] _4361__bF$buf1 d_lut_BUFX2
ABUFX2_67 [_4361_] _4361__bF$buf0 d_lut_BUFX2
ABUFX2_68 [_1601_] _1601__bF$buf3 d_lut_BUFX2
ABUFX2_69 [_1601_] _1601__bF$buf2 d_lut_BUFX2
ABUFX2_70 [_1601_] _1601__bF$buf1 d_lut_BUFX2
ABUFX2_71 [_1601_] _1601__bF$buf0 d_lut_BUFX2
ABUFX2_72 [ULA.B_1_] ULA.B_1_bF$buf7 d_lut_BUFX2
ABUFX2_73 [ULA.B_1_] ULA.B_1_bF$buf6 d_lut_BUFX2
ABUFX2_74 [ULA.B_1_] ULA.B_1_bF$buf5 d_lut_BUFX2
ABUFX2_75 [ULA.B_1_] ULA.B_1_bF$buf4 d_lut_BUFX2
ABUFX2_76 [ULA.B_1_] ULA.B_1_bF$buf3 d_lut_BUFX2
ABUFX2_77 [ULA.B_1_] ULA.B_1_bF$buf2 d_lut_BUFX2
ABUFX2_78 [ULA.B_1_] ULA.B_1_bF$buf1 d_lut_BUFX2
ABUFX2_79 [ULA.B_1_] ULA.B_1_bF$buf0 d_lut_BUFX2
ABUFX2_80 [_5945_] _5945__bF$buf3 d_lut_BUFX2
ABUFX2_81 [_5945_] _5945__bF$buf2 d_lut_BUFX2
ABUFX2_82 [_5945_] _5945__bF$buf1 d_lut_BUFX2
ABUFX2_83 [_5945_] _5945__bF$buf0 d_lut_BUFX2
ABUFX2_84 [_776_] _776__bF$buf3 d_lut_BUFX2
ABUFX2_85 [_776_] _776__bF$buf2 d_lut_BUFX2
ABUFX2_86 [_776_] _776__bF$buf1 d_lut_BUFX2
ABUFX2_87 [_776_] _776__bF$buf0 d_lut_BUFX2
ABUFX2_88 [_1577_] _1577__bF$buf3 d_lut_BUFX2
ABUFX2_89 [_1577_] _1577__bF$buf2 d_lut_BUFX2
ABUFX2_90 [_1577_] _1577__bF$buf1 d_lut_BUFX2
ABUFX2_91 [_1577_] _1577__bF$buf0 d_lut_BUFX2
ABUFX2_92 [_1730_] _1730__bF$buf4 d_lut_BUFX2
ABUFX2_93 [_1730_] _1730__bF$buf3 d_lut_BUFX2
ABUFX2_94 [_1730_] _1730__bF$buf2 d_lut_BUFX2
ABUFX2_95 [_1730_] _1730__bF$buf1 d_lut_BUFX2
ABUFX2_96 [_1730_] _1730__bF$buf0 d_lut_BUFX2
ABUFX2_97 [_1633_] _1633__bF$buf3 d_lut_BUFX2
ABUFX2_98 [_1633_] _1633__bF$buf2 d_lut_BUFX2
ABUFX2_99 [_1633_] _1633__bF$buf1 d_lut_BUFX2
ABUFX2_100 [_1633_] _1633__bF$buf0 d_lut_BUFX2
ABUFX2_101 [_409_] _409__bF$buf5 d_lut_BUFX2
ABUFX2_102 [_409_] _409__bF$buf4 d_lut_BUFX2
ABUFX2_103 [_409_] _409__bF$buf3 d_lut_BUFX2
ABUFX2_104 [_409_] _409__bF$buf2 d_lut_BUFX2
ABUFX2_105 [_409_] _409__bF$buf1 d_lut_BUFX2
ABUFX2_106 [_409_] _409__bF$buf0 d_lut_BUFX2
ABUFX2_107 [_3373_] _3373__bF$buf4 d_lut_BUFX2
ABUFX2_108 [_3373_] _3373__bF$buf3 d_lut_BUFX2
ABUFX2_109 [_3373_] _3373__bF$buf2 d_lut_BUFX2
ABUFX2_110 [_3373_] _3373__bF$buf1 d_lut_BUFX2
ABUFX2_111 [_3373_] _3373__bF$buf0 d_lut_BUFX2
ABUFX2_112 [_1627_] _1627__bF$buf3 d_lut_BUFX2
ABUFX2_113 [_1627_] _1627__bF$buf2 d_lut_BUFX2
ABUFX2_114 [_1627_] _1627__bF$buf1 d_lut_BUFX2
ABUFX2_115 [_1627_] _1627__bF$buf0 d_lut_BUFX2
ABUFX2_116 [_1568_] _1568__bF$buf15 d_lut_BUFX2
ABUFX2_117 [_1568_] _1568__bF$buf14 d_lut_BUFX2
ABUFX2_118 [_1568_] _1568__bF$buf13 d_lut_BUFX2
ABUFX2_119 [_1568_] _1568__bF$buf12 d_lut_BUFX2
ABUFX2_120 [_1568_] _1568__bF$buf11 d_lut_BUFX2
ABUFX2_121 [_1568_] _1568__bF$buf10 d_lut_BUFX2
ABUFX2_122 [_1568_] _1568__bF$buf9 d_lut_BUFX2
ABUFX2_123 [_1568_] _1568__bF$buf8 d_lut_BUFX2
ABUFX2_124 [_1568_] _1568__bF$buf7 d_lut_BUFX2
ABUFX2_125 [_1568_] _1568__bF$buf6 d_lut_BUFX2
ABUFX2_126 [_1568_] _1568__bF$buf5 d_lut_BUFX2
ABUFX2_127 [_1568_] _1568__bF$buf4 d_lut_BUFX2
ABUFX2_128 [_1568_] _1568__bF$buf3 d_lut_BUFX2
ABUFX2_129 [_1568_] _1568__bF$buf2 d_lut_BUFX2
ABUFX2_130 [_1568_] _1568__bF$buf1 d_lut_BUFX2
ABUFX2_131 [_1568_] _1568__bF$buf0 d_lut_BUFX2
ABUFX2_132 [_4728_] _4728__bF$buf4 d_lut_BUFX2
ABUFX2_133 [_4728_] _4728__bF$buf3 d_lut_BUFX2
ABUFX2_134 [_4728_] _4728__bF$buf2 d_lut_BUFX2
ABUFX2_135 [_4728_] _4728__bF$buf1 d_lut_BUFX2
ABUFX2_136 [_4728_] _4728__bF$buf0 d_lut_BUFX2
ABUFX2_137 [_1721_] _1721__bF$buf4 d_lut_BUFX2
ABUFX2_138 [_1721_] _1721__bF$buf3 d_lut_BUFX2
ABUFX2_139 [_1721_] _1721__bF$buf2 d_lut_BUFX2
ABUFX2_140 [_1721_] _1721__bF$buf1 d_lut_BUFX2
ABUFX2_141 [_1721_] _1721__bF$buf0 d_lut_BUFX2
ABUFX2_142 [_4860_] _4860__bF$buf4 d_lut_BUFX2
ABUFX2_143 [_4860_] _4860__bF$buf3 d_lut_BUFX2
ABUFX2_144 [_4860_] _4860__bF$buf2 d_lut_BUFX2
ABUFX2_145 [_4860_] _4860__bF$buf1 d_lut_BUFX2
ABUFX2_146 [_4860_] _4860__bF$buf0 d_lut_BUFX2
ABUFX2_147 [_5739_] _5739__bF$buf7 d_lut_BUFX2
ABUFX2_148 [_5739_] _5739__bF$buf6 d_lut_BUFX2
ABUFX2_149 [_5739_] _5739__bF$buf5 d_lut_BUFX2
ABUFX2_150 [_5739_] _5739__bF$buf4 d_lut_BUFX2
ABUFX2_151 [_5739_] _5739__bF$buf3 d_lut_BUFX2
ABUFX2_152 [_5739_] _5739__bF$buf2 d_lut_BUFX2
ABUFX2_153 [_5739_] _5739__bF$buf1 d_lut_BUFX2
ABUFX2_154 [_5739_] _5739__bF$buf0 d_lut_BUFX2
ABUFX2_155 [_1697_] _1697__bF$buf4 d_lut_BUFX2
ABUFX2_156 [_1697_] _1697__bF$buf3 d_lut_BUFX2
ABUFX2_157 [_1697_] _1697__bF$buf2 d_lut_BUFX2
ABUFX2_158 [_1697_] _1697__bF$buf1 d_lut_BUFX2
ABUFX2_159 [_1697_] _1697__bF$buf0 d_lut_BUFX2
ABUFX2_160 [_1621_] _1621__bF$buf3 d_lut_BUFX2
ABUFX2_161 [_1621_] _1621__bF$buf2 d_lut_BUFX2
ABUFX2_162 [_1621_] _1621__bF$buf1 d_lut_BUFX2
ABUFX2_163 [_1621_] _1621__bF$buf0 d_lut_BUFX2
ABUFX2_164 [clk_hier0_bF$buf8] clk_bF$buf88 d_lut_BUFX2
ABUFX2_165 [clk_hier0_bF$buf7] clk_bF$buf87 d_lut_BUFX2
ABUFX2_166 [clk_hier0_bF$buf6] clk_bF$buf86 d_lut_BUFX2
ABUFX2_167 [clk_hier0_bF$buf5] clk_bF$buf85 d_lut_BUFX2
ABUFX2_168 [clk_hier0_bF$buf4] clk_bF$buf84 d_lut_BUFX2
ABUFX2_169 [clk_hier0_bF$buf3] clk_bF$buf83 d_lut_BUFX2
ABUFX2_170 [clk_hier0_bF$buf2] clk_bF$buf82 d_lut_BUFX2
ABUFX2_171 [clk_hier0_bF$buf1] clk_bF$buf81 d_lut_BUFX2
ABUFX2_172 [clk_hier0_bF$buf0] clk_bF$buf80 d_lut_BUFX2
ABUFX2_173 [clk_hier0_bF$buf8] clk_bF$buf79 d_lut_BUFX2
ABUFX2_174 [clk_hier0_bF$buf7] clk_bF$buf78 d_lut_BUFX2
ABUFX2_175 [clk_hier0_bF$buf6] clk_bF$buf77 d_lut_BUFX2
ABUFX2_176 [clk_hier0_bF$buf5] clk_bF$buf76 d_lut_BUFX2
ABUFX2_177 [clk_hier0_bF$buf4] clk_bF$buf75 d_lut_BUFX2
ABUFX2_178 [clk_hier0_bF$buf3] clk_bF$buf74 d_lut_BUFX2
ABUFX2_179 [clk_hier0_bF$buf2] clk_bF$buf73 d_lut_BUFX2
ABUFX2_180 [clk_hier0_bF$buf1] clk_bF$buf72 d_lut_BUFX2
ABUFX2_181 [clk_hier0_bF$buf0] clk_bF$buf71 d_lut_BUFX2
ABUFX2_182 [clk_hier0_bF$buf8] clk_bF$buf70 d_lut_BUFX2
ABUFX2_183 [clk_hier0_bF$buf7] clk_bF$buf69 d_lut_BUFX2
ABUFX2_184 [clk_hier0_bF$buf6] clk_bF$buf68 d_lut_BUFX2
ABUFX2_185 [clk_hier0_bF$buf5] clk_bF$buf67 d_lut_BUFX2
ABUFX2_186 [clk_hier0_bF$buf4] clk_bF$buf66 d_lut_BUFX2
ABUFX2_187 [clk_hier0_bF$buf3] clk_bF$buf65 d_lut_BUFX2
ABUFX2_188 [clk_hier0_bF$buf2] clk_bF$buf64 d_lut_BUFX2
ABUFX2_189 [clk_hier0_bF$buf1] clk_bF$buf63 d_lut_BUFX2
ABUFX2_190 [clk_hier0_bF$buf0] clk_bF$buf62 d_lut_BUFX2
ABUFX2_191 [clk_hier0_bF$buf8] clk_bF$buf61 d_lut_BUFX2
ABUFX2_192 [clk_hier0_bF$buf7] clk_bF$buf60 d_lut_BUFX2
ABUFX2_193 [clk_hier0_bF$buf6] clk_bF$buf59 d_lut_BUFX2
ABUFX2_194 [clk_hier0_bF$buf5] clk_bF$buf58 d_lut_BUFX2
ABUFX2_195 [clk_hier0_bF$buf4] clk_bF$buf57 d_lut_BUFX2
ABUFX2_196 [clk_hier0_bF$buf3] clk_bF$buf56 d_lut_BUFX2
ABUFX2_197 [clk_hier0_bF$buf2] clk_bF$buf55 d_lut_BUFX2
ABUFX2_198 [clk_hier0_bF$buf1] clk_bF$buf54 d_lut_BUFX2
ABUFX2_199 [clk_hier0_bF$buf0] clk_bF$buf53 d_lut_BUFX2
ABUFX2_200 [clk_hier0_bF$buf8] clk_bF$buf52 d_lut_BUFX2
ABUFX2_201 [clk_hier0_bF$buf7] clk_bF$buf51 d_lut_BUFX2
ABUFX2_202 [clk_hier0_bF$buf6] clk_bF$buf50 d_lut_BUFX2
ABUFX2_203 [clk_hier0_bF$buf5] clk_bF$buf49 d_lut_BUFX2
ABUFX2_204 [clk_hier0_bF$buf4] clk_bF$buf48 d_lut_BUFX2
ABUFX2_205 [clk_hier0_bF$buf3] clk_bF$buf47 d_lut_BUFX2
ABUFX2_206 [clk_hier0_bF$buf2] clk_bF$buf46 d_lut_BUFX2
ABUFX2_207 [clk_hier0_bF$buf1] clk_bF$buf45 d_lut_BUFX2
ABUFX2_208 [clk_hier0_bF$buf0] clk_bF$buf44 d_lut_BUFX2
ABUFX2_209 [clk_hier0_bF$buf8] clk_bF$buf43 d_lut_BUFX2
ABUFX2_210 [clk_hier0_bF$buf7] clk_bF$buf42 d_lut_BUFX2
ABUFX2_211 [clk_hier0_bF$buf6] clk_bF$buf41 d_lut_BUFX2
ABUFX2_212 [clk_hier0_bF$buf5] clk_bF$buf40 d_lut_BUFX2
ABUFX2_213 [clk_hier0_bF$buf4] clk_bF$buf39 d_lut_BUFX2
ABUFX2_214 [clk_hier0_bF$buf3] clk_bF$buf38 d_lut_BUFX2
ABUFX2_215 [clk_hier0_bF$buf2] clk_bF$buf37 d_lut_BUFX2
ABUFX2_216 [clk_hier0_bF$buf1] clk_bF$buf36 d_lut_BUFX2
ABUFX2_217 [clk_hier0_bF$buf0] clk_bF$buf35 d_lut_BUFX2
ABUFX2_218 [clk_hier0_bF$buf8] clk_bF$buf34 d_lut_BUFX2
ABUFX2_219 [clk_hier0_bF$buf7] clk_bF$buf33 d_lut_BUFX2
ABUFX2_220 [clk_hier0_bF$buf6] clk_bF$buf32 d_lut_BUFX2
ABUFX2_221 [clk_hier0_bF$buf5] clk_bF$buf31 d_lut_BUFX2
ABUFX2_222 [clk_hier0_bF$buf4] clk_bF$buf30 d_lut_BUFX2
ABUFX2_223 [clk_hier0_bF$buf3] clk_bF$buf29 d_lut_BUFX2
ABUFX2_224 [clk_hier0_bF$buf2] clk_bF$buf28 d_lut_BUFX2
ABUFX2_225 [clk_hier0_bF$buf1] clk_bF$buf27 d_lut_BUFX2
ABUFX2_226 [clk_hier0_bF$buf0] clk_bF$buf26 d_lut_BUFX2
ABUFX2_227 [clk_hier0_bF$buf8] clk_bF$buf25 d_lut_BUFX2
ABUFX2_228 [clk_hier0_bF$buf7] clk_bF$buf24 d_lut_BUFX2
ABUFX2_229 [clk_hier0_bF$buf6] clk_bF$buf23 d_lut_BUFX2
ABUFX2_230 [clk_hier0_bF$buf5] clk_bF$buf22 d_lut_BUFX2
ABUFX2_231 [clk_hier0_bF$buf4] clk_bF$buf21 d_lut_BUFX2
ABUFX2_232 [clk_hier0_bF$buf3] clk_bF$buf20 d_lut_BUFX2
ABUFX2_233 [clk_hier0_bF$buf2] clk_bF$buf19 d_lut_BUFX2
ABUFX2_234 [clk_hier0_bF$buf1] clk_bF$buf18 d_lut_BUFX2
ABUFX2_235 [clk_hier0_bF$buf0] clk_bF$buf17 d_lut_BUFX2
ABUFX2_236 [clk_hier0_bF$buf8] clk_bF$buf16 d_lut_BUFX2
ABUFX2_237 [clk_hier0_bF$buf7] clk_bF$buf15 d_lut_BUFX2
ABUFX2_238 [clk_hier0_bF$buf6] clk_bF$buf14 d_lut_BUFX2
ABUFX2_239 [clk_hier0_bF$buf5] clk_bF$buf13 d_lut_BUFX2
ABUFX2_240 [clk_hier0_bF$buf4] clk_bF$buf12 d_lut_BUFX2
ABUFX2_241 [clk_hier0_bF$buf3] clk_bF$buf11 d_lut_BUFX2
ABUFX2_242 [clk_hier0_bF$buf2] clk_bF$buf10 d_lut_BUFX2
ABUFX2_243 [clk_hier0_bF$buf1] clk_bF$buf9 d_lut_BUFX2
ABUFX2_244 [clk_hier0_bF$buf0] clk_bF$buf8 d_lut_BUFX2
ABUFX2_245 [clk_hier0_bF$buf8] clk_bF$buf7 d_lut_BUFX2
ABUFX2_246 [clk_hier0_bF$buf7] clk_bF$buf6 d_lut_BUFX2
ABUFX2_247 [clk_hier0_bF$buf6] clk_bF$buf5 d_lut_BUFX2
ABUFX2_248 [clk_hier0_bF$buf5] clk_bF$buf4 d_lut_BUFX2
ABUFX2_249 [clk_hier0_bF$buf4] clk_bF$buf3 d_lut_BUFX2
ABUFX2_250 [clk_hier0_bF$buf3] clk_bF$buf2 d_lut_BUFX2
ABUFX2_251 [clk_hier0_bF$buf2] clk_bF$buf1 d_lut_BUFX2
ABUFX2_252 [clk_hier0_bF$buf1] clk_bF$buf0 d_lut_BUFX2
ABUFX2_253 [_626_] _626__bF$buf3 d_lut_BUFX2
ABUFX2_254 [_626_] _626__bF$buf2 d_lut_BUFX2
ABUFX2_255 [_626_] _626__bF$buf1 d_lut_BUFX2
ABUFX2_256 [_626_] _626__bF$buf0 d_lut_BUFX2
ABUFX2_257 [_473_] _473__bF$buf3 d_lut_BUFX2
ABUFX2_258 [_473_] _473__bF$buf2 d_lut_BUFX2
ABUFX2_259 [_473_] _473__bF$buf1 d_lut_BUFX2
ABUFX2_260 [_473_] _473__bF$buf0 d_lut_BUFX2
ABUFX2_261 [_1597_] _1597__bF$buf3 d_lut_BUFX2
ABUFX2_262 [_1597_] _1597__bF$buf2 d_lut_BUFX2
ABUFX2_263 [_1597_] _1597__bF$buf1 d_lut_BUFX2
ABUFX2_264 [_1597_] _1597__bF$buf0 d_lut_BUFX2
ABUFX2_265 [_470_] _470__bF$buf3 d_lut_BUFX2
ABUFX2_266 [_470_] _470__bF$buf2 d_lut_BUFX2
ABUFX2_267 [_470_] _470__bF$buf1 d_lut_BUFX2
ABUFX2_268 [_470_] _470__bF$buf0 d_lut_BUFX2
ABUFX2_269 [_1615_] _1615__bF$buf3 d_lut_BUFX2
ABUFX2_270 [_1615_] _1615__bF$buf2 d_lut_BUFX2
ABUFX2_271 [_1615_] _1615__bF$buf1 d_lut_BUFX2
ABUFX2_272 [_1615_] _1615__bF$buf0 d_lut_BUFX2
ABUFX2_273 [_3396_] _3396__bF$buf4 d_lut_BUFX2
ABUFX2_274 [_3396_] _3396__bF$buf3 d_lut_BUFX2
ABUFX2_275 [_3396_] _3396__bF$buf2 d_lut_BUFX2
ABUFX2_276 [_3396_] _3396__bF$buf1 d_lut_BUFX2
ABUFX2_277 [_3396_] _3396__bF$buf0 d_lut_BUFX2
ABUFX2_278 [_4563_] _4563__bF$buf4 d_lut_BUFX2
ABUFX2_279 [_4563_] _4563__bF$buf3 d_lut_BUFX2
ABUFX2_280 [_4563_] _4563__bF$buf2 d_lut_BUFX2
ABUFX2_281 [_4563_] _4563__bF$buf1 d_lut_BUFX2
ABUFX2_282 [_4563_] _4563__bF$buf0 d_lut_BUFX2
ABUFX2_283 [_3414_] _3414__bF$buf4 d_lut_BUFX2
ABUFX2_284 [_3414_] _3414__bF$buf3 d_lut_BUFX2
ABUFX2_285 [_3414_] _3414__bF$buf2 d_lut_BUFX2
ABUFX2_286 [_3414_] _3414__bF$buf1 d_lut_BUFX2
ABUFX2_287 [_3414_] _3414__bF$buf0 d_lut_BUFX2
ABUFX2_288 [_4695_] _4695__bF$buf4 d_lut_BUFX2
ABUFX2_289 [_4695_] _4695__bF$buf3 d_lut_BUFX2
ABUFX2_290 [_4695_] _4695__bF$buf2 d_lut_BUFX2
ABUFX2_291 [_4695_] _4695__bF$buf1 d_lut_BUFX2
ABUFX2_292 [_4695_] _4695__bF$buf0 d_lut_BUFX2
ABUFX2_293 [_5289_] _5289__bF$buf6 d_lut_BUFX2
ABUFX2_294 [_5289_] _5289__bF$buf5 d_lut_BUFX2
ABUFX2_295 [_5289_] _5289__bF$buf4 d_lut_BUFX2
ABUFX2_296 [_5289_] _5289__bF$buf3 d_lut_BUFX2
ABUFX2_297 [_5289_] _5289__bF$buf2 d_lut_BUFX2
ABUFX2_298 [_5289_] _5289__bF$buf1 d_lut_BUFX2
ABUFX2_299 [_5289_] _5289__bF$buf0 d_lut_BUFX2
ABUFX2_300 [_5730_] _5730__bF$buf3 d_lut_BUFX2
ABUFX2_301 [_5730_] _5730__bF$buf2 d_lut_BUFX2
ABUFX2_302 [_5730_] _5730__bF$buf1 d_lut_BUFX2
ABUFX2_303 [_5730_] _5730__bF$buf0 d_lut_BUFX2
ABUFX2_304 [_617_] _617__bF$buf3 d_lut_BUFX2
ABUFX2_305 [_617_] _617__bF$buf2 d_lut_BUFX2
ABUFX2_306 [_617_] _617__bF$buf1 d_lut_BUFX2
ABUFX2_307 [_617_] _617__bF$buf0 d_lut_BUFX2
ABUFX2_308 [_1609_] _1609__bF$buf3 d_lut_BUFX2
ABUFX2_309 [_1609_] _1609__bF$buf2 d_lut_BUFX2
ABUFX2_310 [_1609_] _1609__bF$buf1 d_lut_BUFX2
ABUFX2_311 [_1609_] _1609__bF$buf0 d_lut_BUFX2
ABUFX2_312 [_1591_] _1591__bF$buf3 d_lut_BUFX2
ABUFX2_313 [_1591_] _1591__bF$buf2 d_lut_BUFX2
ABUFX2_314 [_1591_] _1591__bF$buf1 d_lut_BUFX2
ABUFX2_315 [_1591_] _1591__bF$buf0 d_lut_BUFX2
ABUFX2_316 [CORE_ULA_REGB_Stall] CORE_ULA_REGB_Stall_bF$buf4 d_lut_BUFX2
ABUFX2_317 [CORE_ULA_REGB_Stall] CORE_ULA_REGB_Stall_bF$buf3 d_lut_BUFX2
ABUFX2_318 [CORE_ULA_REGB_Stall] CORE_ULA_REGB_Stall_bF$buf2 d_lut_BUFX2
ABUFX2_319 [CORE_ULA_REGB_Stall] CORE_ULA_REGB_Stall_bF$buf1 d_lut_BUFX2
ABUFX2_320 [CORE_ULA_REGB_Stall] CORE_ULA_REGB_Stall_bF$buf0 d_lut_BUFX2
ABUFX2_321 [_3411_] _3411__bF$buf4 d_lut_BUFX2
ABUFX2_322 [_3411_] _3411__bF$buf3 d_lut_BUFX2
ABUFX2_323 [_3411_] _3411__bF$buf2 d_lut_BUFX2
ABUFX2_324 [_3411_] _3411__bF$buf1 d_lut_BUFX2
ABUFX2_325 [_3411_] _3411__bF$buf0 d_lut_BUFX2
ABUFX2_326 [_3390_] _3390__bF$buf4 d_lut_BUFX2
ABUFX2_327 [_3390_] _3390__bF$buf3 d_lut_BUFX2
ABUFX2_328 [_3390_] _3390__bF$buf2 d_lut_BUFX2
ABUFX2_329 [_3390_] _3390__bF$buf1 d_lut_BUFX2
ABUFX2_330 [_3390_] _3390__bF$buf0 d_lut_BUFX2
ABUFX2_331 [_1741_] _1741__bF$buf4 d_lut_BUFX2
ABUFX2_332 [_1741_] _1741__bF$buf3 d_lut_BUFX2
ABUFX2_333 [_1741_] _1741__bF$buf2 d_lut_BUFX2
ABUFX2_334 [_1741_] _1741__bF$buf1 d_lut_BUFX2
ABUFX2_335 [_1741_] _1741__bF$buf0 d_lut_BUFX2
ABUFX2_336 [_1682_] _1682__bF$buf4 d_lut_BUFX2
ABUFX2_337 [_1682_] _1682__bF$buf3 d_lut_BUFX2
ABUFX2_338 [_1682_] _1682__bF$buf2 d_lut_BUFX2
ABUFX2_339 [_1682_] _1682__bF$buf1 d_lut_BUFX2
ABUFX2_340 [_1682_] _1682__bF$buf0 d_lut_BUFX2
ABUFX2_341 [_1585_] _1585__bF$buf3 d_lut_BUFX2
ABUFX2_342 [_1585_] _1585__bF$buf2 d_lut_BUFX2
ABUFX2_343 [_1585_] _1585__bF$buf1 d_lut_BUFX2
ABUFX2_344 [_1585_] _1585__bF$buf0 d_lut_BUFX2
ABUFX2_345 [_4325_] _4325__bF$buf4 d_lut_BUFX2
ABUFX2_346 [_4325_] _4325__bF$buf3 d_lut_BUFX2
ABUFX2_347 [_4325_] _4325__bF$buf2 d_lut_BUFX2
ABUFX2_348 [_4325_] _4325__bF$buf1 d_lut_BUFX2
ABUFX2_349 [_4325_] _4325__bF$buf0 d_lut_BUFX2
ABUFX2_350 [_1603_] _1603__bF$buf3 d_lut_BUFX2
ABUFX2_351 [_1603_] _1603__bF$buf2 d_lut_BUFX2
ABUFX2_352 [_1603_] _1603__bF$buf1 d_lut_BUFX2
ABUFX2_353 [_1603_] _1603__bF$buf0 d_lut_BUFX2
ABUFX2_354 [ULA.B_3_] ULA.B_3_bF$buf7 d_lut_BUFX2
ABUFX2_355 [ULA.B_3_] ULA.B_3_bF$buf6 d_lut_BUFX2
ABUFX2_356 [ULA.B_3_] ULA.B_3_bF$buf5 d_lut_BUFX2
ABUFX2_357 [ULA.B_3_] ULA.B_3_bF$buf4 d_lut_BUFX2
ABUFX2_358 [ULA.B_3_] ULA.B_3_bF$buf3 d_lut_BUFX2
ABUFX2_359 [ULA.B_3_] ULA.B_3_bF$buf2 d_lut_BUFX2
ABUFX2_360 [ULA.B_3_] ULA.B_3_bF$buf1 d_lut_BUFX2
ABUFX2_361 [ULA.B_3_] ULA.B_3_bF$buf0 d_lut_BUFX2
ABUFX2_362 [_1735_] _1735__bF$buf4 d_lut_BUFX2
ABUFX2_363 [_1735_] _1735__bF$buf3 d_lut_BUFX2
ABUFX2_364 [_1735_] _1735__bF$buf2 d_lut_BUFX2
ABUFX2_365 [_1735_] _1735__bF$buf1 d_lut_BUFX2
ABUFX2_366 [_1735_] _1735__bF$buf0 d_lut_BUFX2
ABUFX2_367 [_1579_] _1579__bF$buf3 d_lut_BUFX2
ABUFX2_368 [_1579_] _1579__bF$buf2 d_lut_BUFX2
ABUFX2_369 [_1579_] _1579__bF$buf1 d_lut_BUFX2
ABUFX2_370 [_1579_] _1579__bF$buf0 d_lut_BUFX2
ABUFX2_371 [ULA.B_0_] ULA.B_0_bF$buf7 d_lut_BUFX2
ABUFX2_372 [ULA.B_0_] ULA.B_0_bF$buf6 d_lut_BUFX2
ABUFX2_373 [ULA.B_0_] ULA.B_0_bF$buf5 d_lut_BUFX2
ABUFX2_374 [ULA.B_0_] ULA.B_0_bF$buf4 d_lut_BUFX2
ABUFX2_375 [ULA.B_0_] ULA.B_0_bF$buf3 d_lut_BUFX2
ABUFX2_376 [ULA.B_0_] ULA.B_0_bF$buf2 d_lut_BUFX2
ABUFX2_377 [ULA.B_0_] ULA.B_0_bF$buf1 d_lut_BUFX2
ABUFX2_378 [ULA.B_0_] ULA.B_0_bF$buf0 d_lut_BUFX2
ABUFX2_379 [_3381_] _3381__bF$buf4 d_lut_BUFX2
ABUFX2_380 [_3381_] _3381__bF$buf3 d_lut_BUFX2
ABUFX2_381 [_3381_] _3381__bF$buf2 d_lut_BUFX2
ABUFX2_382 [_3381_] _3381__bF$buf1 d_lut_BUFX2
ABUFX2_383 [_3381_] _3381__bF$buf0 d_lut_BUFX2
ABUFX2_384 [_4395_] _4395__bF$buf4 d_lut_BUFX2
ABUFX2_385 [_4395_] _4395__bF$buf3 d_lut_BUFX2
ABUFX2_386 [_4395_] _4395__bF$buf2 d_lut_BUFX2
ABUFX2_387 [_4395_] _4395__bF$buf1 d_lut_BUFX2
ABUFX2_388 [_4395_] _4395__bF$buf0 d_lut_BUFX2
ABUFX2_389 [_1635_] _1635__bF$buf3 d_lut_BUFX2
ABUFX2_390 [_1635_] _1635__bF$buf2 d_lut_BUFX2
ABUFX2_391 [_1635_] _1635__bF$buf1 d_lut_BUFX2
ABUFX2_392 [_1635_] _1635__bF$buf0 d_lut_BUFX2
ABUFX2_393 [_3378_] _3378__bF$buf4 d_lut_BUFX2
ABUFX2_394 [_3378_] _3378__bF$buf3 d_lut_BUFX2
ABUFX2_395 [_3378_] _3378__bF$buf2 d_lut_BUFX2
ABUFX2_396 [_3378_] _3378__bF$buf1 d_lut_BUFX2
ABUFX2_397 [_3378_] _3378__bF$buf0 d_lut_BUFX2
ABUFX2_398 [_5524_] _5524__bF$buf3 d_lut_BUFX2
ABUFX2_399 [_5524_] _5524__bF$buf2 d_lut_BUFX2
ABUFX2_400 [_5524_] _5524__bF$buf1 d_lut_BUFX2
ABUFX2_401 [_5524_] _5524__bF$buf0 d_lut_BUFX2
ABUFX2_402 [_487_] _487__bF$buf3 d_lut_BUFX2
ABUFX2_403 [_487_] _487__bF$buf2 d_lut_BUFX2
ABUFX2_404 [_487_] _487__bF$buf1 d_lut_BUFX2
ABUFX2_405 [_487_] _487__bF$buf0 d_lut_BUFX2
ABUFX2_406 [_505_] _505__bF$buf3 d_lut_BUFX2
ABUFX2_407 [_505_] _505__bF$buf2 d_lut_BUFX2
ABUFX2_408 [_505_] _505__bF$buf1 d_lut_BUFX2
ABUFX2_409 [_505_] _505__bF$buf0 d_lut_BUFX2
ABUFX2_410 [_1573__hier0_bF$buf7] _1573__bF$buf78 d_lut_BUFX2
ABUFX2_411 [_1573__hier0_bF$buf6] _1573__bF$buf77 d_lut_BUFX2
ABUFX2_412 [_1573__hier0_bF$buf5] _1573__bF$buf76 d_lut_BUFX2
ABUFX2_413 [_1573__hier0_bF$buf4] _1573__bF$buf75 d_lut_BUFX2
ABUFX2_414 [_1573__hier0_bF$buf3] _1573__bF$buf74 d_lut_BUFX2
ABUFX2_415 [_1573__hier0_bF$buf2] _1573__bF$buf73 d_lut_BUFX2
ABUFX2_416 [_1573__hier0_bF$buf1] _1573__bF$buf72 d_lut_BUFX2
ABUFX2_417 [_1573__hier0_bF$buf0] _1573__bF$buf71 d_lut_BUFX2
ABUFX2_418 [_1573__hier0_bF$buf7] _1573__bF$buf70 d_lut_BUFX2
ABUFX2_419 [_1573__hier0_bF$buf6] _1573__bF$buf69 d_lut_BUFX2
ABUFX2_420 [_1573__hier0_bF$buf5] _1573__bF$buf68 d_lut_BUFX2
ABUFX2_421 [_1573__hier0_bF$buf4] _1573__bF$buf67 d_lut_BUFX2
ABUFX2_422 [_1573__hier0_bF$buf3] _1573__bF$buf66 d_lut_BUFX2
ABUFX2_423 [_1573__hier0_bF$buf2] _1573__bF$buf65 d_lut_BUFX2
ABUFX2_424 [_1573__hier0_bF$buf1] _1573__bF$buf64 d_lut_BUFX2
ABUFX2_425 [_1573__hier0_bF$buf0] _1573__bF$buf63 d_lut_BUFX2
ABUFX2_426 [_1573__hier0_bF$buf7] _1573__bF$buf62 d_lut_BUFX2
ABUFX2_427 [_1573__hier0_bF$buf6] _1573__bF$buf61 d_lut_BUFX2
ABUFX2_428 [_1573__hier0_bF$buf5] _1573__bF$buf60 d_lut_BUFX2
ABUFX2_429 [_1573__hier0_bF$buf4] _1573__bF$buf59 d_lut_BUFX2
ABUFX2_430 [_1573__hier0_bF$buf3] _1573__bF$buf58 d_lut_BUFX2
ABUFX2_431 [_1573__hier0_bF$buf2] _1573__bF$buf57 d_lut_BUFX2
ABUFX2_432 [_1573__hier0_bF$buf1] _1573__bF$buf56 d_lut_BUFX2
ABUFX2_433 [_1573__hier0_bF$buf0] _1573__bF$buf55 d_lut_BUFX2
ABUFX2_434 [_1573__hier0_bF$buf7] _1573__bF$buf54 d_lut_BUFX2
ABUFX2_435 [_1573__hier0_bF$buf6] _1573__bF$buf53 d_lut_BUFX2
ABUFX2_436 [_1573__hier0_bF$buf5] _1573__bF$buf52 d_lut_BUFX2
ABUFX2_437 [_1573__hier0_bF$buf4] _1573__bF$buf51 d_lut_BUFX2
ABUFX2_438 [_1573__hier0_bF$buf3] _1573__bF$buf50 d_lut_BUFX2
ABUFX2_439 [_1573__hier0_bF$buf2] _1573__bF$buf49 d_lut_BUFX2
ABUFX2_440 [_1573__hier0_bF$buf1] _1573__bF$buf48 d_lut_BUFX2
ABUFX2_441 [_1573__hier0_bF$buf0] _1573__bF$buf47 d_lut_BUFX2
ABUFX2_442 [_1573__hier0_bF$buf7] _1573__bF$buf46 d_lut_BUFX2
ABUFX2_443 [_1573__hier0_bF$buf6] _1573__bF$buf45 d_lut_BUFX2
ABUFX2_444 [_1573__hier0_bF$buf5] _1573__bF$buf44 d_lut_BUFX2
ABUFX2_445 [_1573__hier0_bF$buf4] _1573__bF$buf43 d_lut_BUFX2
ABUFX2_446 [_1573__hier0_bF$buf3] _1573__bF$buf42 d_lut_BUFX2
ABUFX2_447 [_1573__hier0_bF$buf2] _1573__bF$buf41 d_lut_BUFX2
ABUFX2_448 [_1573__hier0_bF$buf1] _1573__bF$buf40 d_lut_BUFX2
ABUFX2_449 [_1573__hier0_bF$buf0] _1573__bF$buf39 d_lut_BUFX2
ABUFX2_450 [_1573__hier0_bF$buf7] _1573__bF$buf38 d_lut_BUFX2
ABUFX2_451 [_1573__hier0_bF$buf6] _1573__bF$buf37 d_lut_BUFX2
ABUFX2_452 [_1573__hier0_bF$buf5] _1573__bF$buf36 d_lut_BUFX2
ABUFX2_453 [_1573__hier0_bF$buf4] _1573__bF$buf35 d_lut_BUFX2
ABUFX2_454 [_1573__hier0_bF$buf3] _1573__bF$buf34 d_lut_BUFX2
ABUFX2_455 [_1573__hier0_bF$buf2] _1573__bF$buf33 d_lut_BUFX2
ABUFX2_456 [_1573__hier0_bF$buf1] _1573__bF$buf32 d_lut_BUFX2
ABUFX2_457 [_1573__hier0_bF$buf0] _1573__bF$buf31 d_lut_BUFX2
ABUFX2_458 [_1573__hier0_bF$buf7] _1573__bF$buf30 d_lut_BUFX2
ABUFX2_459 [_1573__hier0_bF$buf6] _1573__bF$buf29 d_lut_BUFX2
ABUFX2_460 [_1573__hier0_bF$buf5] _1573__bF$buf28 d_lut_BUFX2
ABUFX2_461 [_1573__hier0_bF$buf4] _1573__bF$buf27 d_lut_BUFX2
ABUFX2_462 [_1573__hier0_bF$buf3] _1573__bF$buf26 d_lut_BUFX2
ABUFX2_463 [_1573__hier0_bF$buf2] _1573__bF$buf25 d_lut_BUFX2
ABUFX2_464 [_1573__hier0_bF$buf1] _1573__bF$buf24 d_lut_BUFX2
ABUFX2_465 [_1573__hier0_bF$buf0] _1573__bF$buf23 d_lut_BUFX2
ABUFX2_466 [_1573__hier0_bF$buf7] _1573__bF$buf22 d_lut_BUFX2
ABUFX2_467 [_1573__hier0_bF$buf6] _1573__bF$buf21 d_lut_BUFX2
ABUFX2_468 [_1573__hier0_bF$buf5] _1573__bF$buf20 d_lut_BUFX2
ABUFX2_469 [_1573__hier0_bF$buf4] _1573__bF$buf19 d_lut_BUFX2
ABUFX2_470 [_1573__hier0_bF$buf3] _1573__bF$buf18 d_lut_BUFX2
ABUFX2_471 [_1573__hier0_bF$buf2] _1573__bF$buf17 d_lut_BUFX2
ABUFX2_472 [_1573__hier0_bF$buf1] _1573__bF$buf16 d_lut_BUFX2
ABUFX2_473 [_1573__hier0_bF$buf0] _1573__bF$buf15 d_lut_BUFX2
ABUFX2_474 [_1573__hier0_bF$buf7] _1573__bF$buf14 d_lut_BUFX2
ABUFX2_475 [_1573__hier0_bF$buf6] _1573__bF$buf13 d_lut_BUFX2
ABUFX2_476 [_1573__hier0_bF$buf5] _1573__bF$buf12 d_lut_BUFX2
ABUFX2_477 [_1573__hier0_bF$buf4] _1573__bF$buf11 d_lut_BUFX2
ABUFX2_478 [_1573__hier0_bF$buf3] _1573__bF$buf10 d_lut_BUFX2
ABUFX2_479 [_1573__hier0_bF$buf2] _1573__bF$buf9 d_lut_BUFX2
ABUFX2_480 [_1573__hier0_bF$buf1] _1573__bF$buf8 d_lut_BUFX2
ABUFX2_481 [_1573__hier0_bF$buf0] _1573__bF$buf7 d_lut_BUFX2
ABUFX2_482 [_1573__hier0_bF$buf7] _1573__bF$buf6 d_lut_BUFX2
ABUFX2_483 [_1573__hier0_bF$buf6] _1573__bF$buf5 d_lut_BUFX2
ABUFX2_484 [_1573__hier0_bF$buf5] _1573__bF$buf4 d_lut_BUFX2
ABUFX2_485 [_1573__hier0_bF$buf4] _1573__bF$buf3 d_lut_BUFX2
ABUFX2_486 [_1573__hier0_bF$buf3] _1573__bF$buf2 d_lut_BUFX2
ABUFX2_487 [_1573__hier0_bF$buf2] _1573__bF$buf1 d_lut_BUFX2
ABUFX2_488 [_1573__hier0_bF$buf1] _1573__bF$buf0 d_lut_BUFX2
ABUFX2_489 [_484_] _484__bF$buf3 d_lut_BUFX2
ABUFX2_490 [_484_] _484__bF$buf2 d_lut_BUFX2
ABUFX2_491 [_484_] _484__bF$buf1 d_lut_BUFX2
ABUFX2_492 [_484_] _484__bF$buf0 d_lut_BUFX2
ABUFX2_493 [_1629_] _1629__bF$buf3 d_lut_BUFX2
ABUFX2_494 [_1629_] _1629__bF$buf2 d_lut_BUFX2
ABUFX2_495 [_1629_] _1629__bF$buf1 d_lut_BUFX2
ABUFX2_496 [_1629_] _1629__bF$buf0 d_lut_BUFX2
ABUFX2_497 [_4827_] _4827__bF$buf4 d_lut_BUFX2
ABUFX2_498 [_4827_] _4827__bF$buf3 d_lut_BUFX2
ABUFX2_499 [_4827_] _4827__bF$buf2 d_lut_BUFX2
ABUFX2_500 [_4827_] _4827__bF$buf1 d_lut_BUFX2
ABUFX2_501 [_4827_] _4827__bF$buf0 d_lut_BUFX2
ABUFX2_502 [INTERRUPT_flag] INTERRUPT_flag_bF$buf15 d_lut_BUFX2
ABUFX2_503 [INTERRUPT_flag] INTERRUPT_flag_bF$buf14 d_lut_BUFX2
ABUFX2_504 [INTERRUPT_flag] INTERRUPT_flag_bF$buf13 d_lut_BUFX2
ABUFX2_505 [INTERRUPT_flag] INTERRUPT_flag_bF$buf12 d_lut_BUFX2
ABUFX2_506 [INTERRUPT_flag] INTERRUPT_flag_bF$buf11 d_lut_BUFX2