* XSpice netlist created from SPICE and liberty sources by spi2xspice.py
*SPICE netlist created from BLIF module NRISC_IData by blif2BSpice
.subckt NRISC_IData a_vdd a_gnd a_IDATA_CORE_addr_0_ a_IDATA_CORE_addr_1_ a_IDATA_CORE_addr_2_ a_IDATA_CORE_addr_3_ a_IDATA_CORE_addr_4_ a_IDATA_CORE_addr_5_ a_IDATA_CORE_addr_6_ a_IDATA_CORE_addr_7_ a_IDATA_CORE_addr_8_ a_IDATA_CORE_addr_9_ a_IDATA_CORE_addr_10_ a_IDATA_CORE_addr_11_ a_IDATA_CORE_addr_12_ a_IDATA_CORE_addr_13_ a_IDATA_CORE_addr_14_ a_IDATA_CORE_addr_15_ a_IDATA_PROG_write a_IDATA_PROG_addr_0_ a_IDATA_PROG_addr_1_ a_IDATA_PROG_addr_2_ a_IDATA_PROG_addr_3_ a_IDATA_PROG_addr_4_ a_IDATA_PROG_addr_5_ a_IDATA_PROG_addr_6_ a_IDATA_PROG_addr_7_ a_IDATA_PROG_addr_8_ a_IDATA_PROG_addr_9_ a_IDATA_PROG_data_0_ a_IDATA_PROG_data_1_ a_IDATA_PROG_data_2_ a_IDATA_PROG_data_3_ a_IDATA_PROG_data_4_ a_IDATA_PROG_data_5_ a_IDATA_PROG_data_6_ a_IDATA_PROG_data_7_ a_IDATA_PROG_data_8_ a_IDATA_PROG_data_9_ a_IDATA_PROG_data_10_ a_IDATA_PROG_data_11_ a_IDATA_PROG_data_12_ a_IDATA_PROG_data_13_ a_IDATA_PROG_data_14_ a_IDATA_PROG_data_15_ a_clk a_rst a_IDATA_CORE_out_0_ a_IDATA_CORE_out_1_ a_IDATA_CORE_out_2_ a_IDATA_CORE_out_3_ a_IDATA_CORE_out_4_ a_IDATA_CORE_out_5_ a_IDATA_CORE_out_6_ a_IDATA_CORE_out_7_ a_IDATA_CORE_out_8_ a_IDATA_CORE_out_9_ a_IDATA_CORE_out_10_ a_IDATA_CORE_out_11_ a_IDATA_CORE_out_12_ a_IDATA_CORE_out_13_ a_IDATA_CORE_out_14_ a_IDATA_CORE_out_15_
ABUFX4_1 [clk] clk_hier0_bF$buf15 d_lut_BUFX4
ABUFX4_2 [clk] clk_hier0_bF$buf14 d_lut_BUFX4
ABUFX4_3 [clk] clk_hier0_bF$buf13 d_lut_BUFX4
ABUFX4_4 [clk] clk_hier0_bF$buf12 d_lut_BUFX4
ABUFX4_5 [clk] clk_hier0_bF$buf11 d_lut_BUFX4
ABUFX4_6 [clk] clk_hier0_bF$buf10 d_lut_BUFX4
ABUFX4_7 [clk] clk_hier0_bF$buf9 d_lut_BUFX4
ABUFX4_8 [clk] clk_hier0_bF$buf8 d_lut_BUFX4
ABUFX4_9 [clk] clk_hier0_bF$buf7 d_lut_BUFX4
ABUFX4_10 [clk] clk_hier0_bF$buf6 d_lut_BUFX4
ABUFX4_11 [clk] clk_hier0_bF$buf5 d_lut_BUFX4
ABUFX4_12 [clk] clk_hier0_bF$buf4 d_lut_BUFX4
ABUFX4_13 [clk] clk_hier0_bF$buf3 d_lut_BUFX4
ABUFX4_14 [clk] clk_hier0_bF$buf2 d_lut_BUFX4
ABUFX4_15 [clk] clk_hier0_bF$buf1 d_lut_BUFX4
ABUFX4_16 [clk] clk_hier0_bF$buf0 d_lut_BUFX4
ABUFX4_17 [_3393_] _3393__hier0_bF$buf7 d_lut_BUFX4
ABUFX4_18 [_3393_] _3393__hier0_bF$buf6 d_lut_BUFX4
ABUFX4_19 [_3393_] _3393__hier0_bF$buf5 d_lut_BUFX4
ABUFX4_20 [_3393_] _3393__hier0_bF$buf4 d_lut_BUFX4
ABUFX4_21 [_3393_] _3393__hier0_bF$buf3 d_lut_BUFX4
ABUFX4_22 [_3393_] _3393__hier0_bF$buf2 d_lut_BUFX4
ABUFX4_23 [_3393_] _3393__hier0_bF$buf1 d_lut_BUFX4
ABUFX4_24 [_3393_] _3393__hier0_bF$buf0 d_lut_BUFX4
ABUFX4_25 [clk_bF$buf250] clk_bF$buf250_bF$buf3 d_lut_BUFX4
ABUFX4_26 [clk_bF$buf250] clk_bF$buf250_bF$buf2 d_lut_BUFX4
ABUFX4_27 [clk_bF$buf250] clk_bF$buf250_bF$buf1 d_lut_BUFX4
ABUFX4_28 [clk_bF$buf250] clk_bF$buf250_bF$buf0 d_lut_BUFX4
ABUFX4_29 [clk_bF$buf251] clk_bF$buf251_bF$buf3 d_lut_BUFX4
ABUFX4_30 [clk_bF$buf251] clk_bF$buf251_bF$buf2 d_lut_BUFX4
ABUFX4_31 [clk_bF$buf251] clk_bF$buf251_bF$buf1 d_lut_BUFX4
ABUFX4_32 [clk_bF$buf251] clk_bF$buf251_bF$buf0 d_lut_BUFX4
ABUFX4_33 [clk_bF$buf252] clk_bF$buf252_bF$buf3 d_lut_BUFX4
ABUFX4_34 [clk_bF$buf252] clk_bF$buf252_bF$buf2 d_lut_BUFX4
ABUFX4_35 [clk_bF$buf252] clk_bF$buf252_bF$buf1 d_lut_BUFX4
ABUFX4_36 [clk_bF$buf252] clk_bF$buf252_bF$buf0 d_lut_BUFX4
ABUFX4_37 [clk_bF$buf253] clk_bF$buf253_bF$buf3 d_lut_BUFX4
ABUFX4_38 [clk_bF$buf253] clk_bF$buf253_bF$buf2 d_lut_BUFX4
ABUFX4_39 [clk_bF$buf253] clk_bF$buf253_bF$buf1 d_lut_BUFX4
ABUFX4_40 [clk_bF$buf253] clk_bF$buf253_bF$buf0 d_lut_BUFX4
ABUFX4_41 [clk_bF$buf254] clk_bF$buf254_bF$buf3 d_lut_BUFX4
ABUFX4_42 [clk_bF$buf254] clk_bF$buf254_bF$buf2 d_lut_BUFX4
ABUFX4_43 [clk_bF$buf254] clk_bF$buf254_bF$buf1 d_lut_BUFX4
ABUFX4_44 [clk_bF$buf254] clk_bF$buf254_bF$buf0 d_lut_BUFX4
ABUFX4_45 [clk_bF$buf255] clk_bF$buf255_bF$buf3 d_lut_BUFX4
ABUFX4_46 [clk_bF$buf255] clk_bF$buf255_bF$buf2 d_lut_BUFX4
ABUFX4_47 [clk_bF$buf255] clk_bF$buf255_bF$buf1 d_lut_BUFX4
ABUFX4_48 [clk_bF$buf255] clk_bF$buf255_bF$buf0 d_lut_BUFX4
ABUFX4_49 [_3313_] _3313__hier0_bF$buf8 d_lut_BUFX4
ABUFX4_50 [_3313_] _3313__hier0_bF$buf7 d_lut_BUFX4
ABUFX4_51 [_3313_] _3313__hier0_bF$buf6 d_lut_BUFX4
ABUFX4_52 [_3313_] _3313__hier0_bF$buf5 d_lut_BUFX4
ABUFX4_53 [_3313_] _3313__hier0_bF$buf4 d_lut_BUFX4
ABUFX4_54 [_3313_] _3313__hier0_bF$buf3 d_lut_BUFX4
ABUFX4_55 [_3313_] _3313__hier0_bF$buf2 d_lut_BUFX4
ABUFX4_56 [_3313_] _3313__hier0_bF$buf1 d_lut_BUFX4
ABUFX4_57 [_3313_] _3313__hier0_bF$buf0 d_lut_BUFX4
ABUFX4_58 [clk_bF$buf240] clk_bF$buf240_bF$buf3 d_lut_BUFX4
ABUFX4_59 [clk_bF$buf240] clk_bF$buf240_bF$buf2 d_lut_BUFX4
ABUFX4_60 [clk_bF$buf240] clk_bF$buf240_bF$buf1 d_lut_BUFX4
ABUFX4_61 [clk_bF$buf240] clk_bF$buf240_bF$buf0 d_lut_BUFX4
ABUFX4_62 [clk_bF$buf241] clk_bF$buf241_bF$buf3 d_lut_BUFX4
ABUFX4_63 [clk_bF$buf241] clk_bF$buf241_bF$buf2 d_lut_BUFX4
ABUFX4_64 [clk_bF$buf241] clk_bF$buf241_bF$buf1 d_lut_BUFX4
ABUFX4_65 [clk_bF$buf241] clk_bF$buf241_bF$buf0 d_lut_BUFX4
ABUFX4_66 [clk_bF$buf242] clk_bF$buf242_bF$buf3 d_lut_BUFX4
ABUFX4_67 [clk_bF$buf242] clk_bF$buf242_bF$buf2 d_lut_BUFX4
ABUFX4_68 [clk_bF$buf242] clk_bF$buf242_bF$buf1 d_lut_BUFX4
ABUFX4_69 [clk_bF$buf242] clk_bF$buf242_bF$buf0 d_lut_BUFX4
ABUFX4_70 [clk_bF$buf243] clk_bF$buf243_bF$buf3 d_lut_BUFX4
ABUFX4_71 [clk_bF$buf243] clk_bF$buf243_bF$buf2 d_lut_BUFX4
ABUFX4_72 [clk_bF$buf243] clk_bF$buf243_bF$buf1 d_lut_BUFX4
ABUFX4_73 [clk_bF$buf243] clk_bF$buf243_bF$buf0 d_lut_BUFX4
ABUFX4_74 [clk_bF$buf244] clk_bF$buf244_bF$buf3 d_lut_BUFX4
ABUFX4_75 [clk_bF$buf244] clk_bF$buf244_bF$buf2 d_lut_BUFX4
ABUFX4_76 [clk_bF$buf244] clk_bF$buf244_bF$buf1 d_lut_BUFX4
ABUFX4_77 [clk_bF$buf244] clk_bF$buf244_bF$buf0 d_lut_BUFX4
ABUFX4_78 [clk_bF$buf245] clk_bF$buf245_bF$buf3 d_lut_BUFX4
ABUFX4_79 [clk_bF$buf245] clk_bF$buf245_bF$buf2 d_lut_BUFX4
ABUFX4_80 [clk_bF$buf245] clk_bF$buf245_bF$buf1 d_lut_BUFX4
ABUFX4_81 [clk_bF$buf245] clk_bF$buf245_bF$buf0 d_lut_BUFX4
ABUFX4_82 [clk_bF$buf246] clk_bF$buf246_bF$buf3 d_lut_BUFX4
ABUFX4_83 [clk_bF$buf246] clk_bF$buf246_bF$buf2 d_lut_BUFX4
ABUFX4_84 [clk_bF$buf246] clk_bF$buf246_bF$buf1 d_lut_BUFX4
ABUFX4_85 [clk_bF$buf246] clk_bF$buf246_bF$buf0 d_lut_BUFX4
ABUFX4_86 [clk_bF$buf247] clk_bF$buf247_bF$buf3 d_lut_BUFX4
ABUFX4_87 [clk_bF$buf247] clk_bF$buf247_bF$buf2 d_lut_BUFX4
ABUFX4_88 [clk_bF$buf247] clk_bF$buf247_bF$buf1 d_lut_BUFX4
ABUFX4_89 [clk_bF$buf247] clk_bF$buf247_bF$buf0 d_lut_BUFX4
ABUFX4_90 [clk_bF$buf248] clk_bF$buf248_bF$buf3 d_lut_BUFX4
ABUFX4_91 [clk_bF$buf248] clk_bF$buf248_bF$buf2 d_lut_BUFX4
ABUFX4_92 [clk_bF$buf248] clk_bF$buf248_bF$buf1 d_lut_BUFX4
ABUFX4_93 [clk_bF$buf248] clk_bF$buf248_bF$buf0 d_lut_BUFX4
ABUFX4_94 [clk_bF$buf249] clk_bF$buf249_bF$buf3 d_lut_BUFX4
ABUFX4_95 [clk_bF$buf249] clk_bF$buf249_bF$buf2 d_lut_BUFX4
ABUFX4_96 [clk_bF$buf249] clk_bF$buf249_bF$buf1 d_lut_BUFX4
ABUFX4_97 [clk_bF$buf249] clk_bF$buf249_bF$buf0 d_lut_BUFX4
ABUFX4_98 [_14882__bF$buf13] _14882__bF$buf13_bF$buf3 d_lut_BUFX4
ABUFX4_99 [_14882__bF$buf13] _14882__bF$buf13_bF$buf2 d_lut_BUFX4
ABUFX4_100 [_14882__bF$buf13] _14882__bF$buf13_bF$buf1 d_lut_BUFX4
ABUFX4_101 [_14882__bF$buf13] _14882__bF$buf13_bF$buf0 d_lut_BUFX4
ABUFX4_102 [_14882__bF$buf14] _14882__bF$buf14_bF$buf3 d_lut_BUFX4
ABUFX4_103 [_14882__bF$buf14] _14882__bF$buf14_bF$buf2 d_lut_BUFX4
ABUFX4_104 [_14882__bF$buf14] _14882__bF$buf14_bF$buf1 d_lut_BUFX4
ABUFX4_105 [_14882__bF$buf14] _14882__bF$buf14_bF$buf0 d_lut_BUFX4
ABUFX4_106 [_14882__bF$buf15] _14882__bF$buf15_bF$buf3 d_lut_BUFX4
ABUFX4_107 [_14882__bF$buf15] _14882__bF$buf15_bF$buf2 d_lut_BUFX4
ABUFX4_108 [_14882__bF$buf15] _14882__bF$buf15_bF$buf1 d_lut_BUFX4
ABUFX4_109 [_14882__bF$buf15] _14882__bF$buf15_bF$buf0 d_lut_BUFX4
ABUFX4_110 [_3306_] _3306__bF$buf6 d_lut_BUFX4
ABUFX4_111 [_3306_] _3306__bF$buf5 d_lut_BUFX4
ABUFX4_112 [_3306_] _3306__bF$buf4 d_lut_BUFX4
ABUFX4_113 [_3306_] _3306__bF$buf3 d_lut_BUFX4
ABUFX4_114 [_3306_] _3306__bF$buf2 d_lut_BUFX4
ABUFX4_115 [_3306_] _3306__bF$buf1 d_lut_BUFX4
ABUFX4_116 [_3306_] _3306__bF$buf0 d_lut_BUFX4
ABUFX4_117 [_15120_] _15120__bF$buf3 d_lut_BUFX4
ABUFX4_118 [_15120_] _15120__bF$buf2 d_lut_BUFX4
ABUFX4_119 [_15120_] _15120__bF$buf1 d_lut_BUFX4
ABUFX4_120 [_15120_] _15120__bF$buf0 d_lut_BUFX4
ABUFX4_121 [_8476_] _8476__bF$buf3 d_lut_BUFX4
ABUFX4_122 [_8476_] _8476__bF$buf2 d_lut_BUFX4
ABUFX4_123 [_8476_] _8476__bF$buf1 d_lut_BUFX4
ABUFX4_124 [_8476_] _8476__bF$buf0 d_lut_BUFX4
ABUFX4_125 [_8820_] _8820__bF$buf3 d_lut_BUFX4
ABUFX4_126 [_8820_] _8820__bF$buf2 d_lut_BUFX4
ABUFX4_127 [_8820_] _8820__bF$buf1 d_lut_BUFX4
ABUFX4_128 [_8820_] _8820__bF$buf0 d_lut_BUFX4
ABUFX4_129 [_15575_] _15575__bF$buf3 d_lut_BUFX4
ABUFX4_130 [_15575_] _15575__bF$buf2 d_lut_BUFX4
ABUFX4_131 [_15575_] _15575__bF$buf1 d_lut_BUFX4
ABUFX4_132 [_15575_] _15575__bF$buf0 d_lut_BUFX4
ABUFX4_133 [_2497_] _2497__bF$buf3 d_lut_BUFX4
ABUFX4_134 [_2497_] _2497__bF$buf2 d_lut_BUFX4
ABUFX4_135 [_2497_] _2497__bF$buf1 d_lut_BUFX4
ABUFX4_136 [_2497_] _2497__bF$buf0 d_lut_BUFX4
ABUFX4_137 [_3952_] _3952__bF$buf3 d_lut_BUFX4
ABUFX4_138 [_3952_] _3952__bF$buf2 d_lut_BUFX4
ABUFX4_139 [_3952_] _3952__bF$buf1 d_lut_BUFX4
ABUFX4_140 [_3952_] _3952__bF$buf0 d_lut_BUFX4
ABUFX4_141 [_14978_] _14978__bF$buf4 d_lut_BUFX4
ABUFX4_142 [_14978_] _14978__bF$buf3 d_lut_BUFX4
ABUFX4_143 [_14978_] _14978__bF$buf2 d_lut_BUFX4
ABUFX4_144 [_14978_] _14978__bF$buf1 d_lut_BUFX4
ABUFX4_145 [_14978_] _14978__bF$buf0 d_lut_BUFX4
ABUFX4_146 [_14902_] _14902__bF$buf13 d_lut_BUFX4
ABUFX4_147 [_14902_] _14902__bF$buf12 d_lut_BUFX4
ABUFX4_148 [_14902_] _14902__bF$buf11 d_lut_BUFX4
ABUFX4_149 [_14902_] _14902__bF$buf10 d_lut_BUFX4
ABUFX4_150 [_14902_] _14902__bF$buf9 d_lut_BUFX4
ABUFX4_151 [_14902_] _14902__bF$buf8 d_lut_BUFX4
ABUFX4_152 [_14902_] _14902__bF$buf7 d_lut_BUFX4
ABUFX4_153 [_14902_] _14902__bF$buf6 d_lut_BUFX4
ABUFX4_154 [_14902_] _14902__bF$buf5 d_lut_BUFX4
ABUFX4_155 [_14902_] _14902__bF$buf4 d_lut_BUFX4
ABUFX4_156 [_14902_] _14902__bF$buf3 d_lut_BUFX4
ABUFX4_157 [_14902_] _14902__bF$buf2 d_lut_BUFX4
ABUFX4_158 [_14902_] _14902__bF$buf1 d_lut_BUFX4
ABUFX4_159 [_14902_] _14902__bF$buf0 d_lut_BUFX4
ABUFX4_160 [_2418_] _2418__bF$buf3 d_lut_BUFX4
ABUFX4_161 [_2418_] _2418__bF$buf2 d_lut_BUFX4
ABUFX4_162 [_2418_] _2418__bF$buf1 d_lut_BUFX4
ABUFX4_163 [_2418_] _2418__bF$buf0 d_lut_BUFX4
ABUFX4_164 [_8279_] _8279__bF$buf3 d_lut_BUFX4
ABUFX4_165 [_8279_] _8279__bF$buf2 d_lut_BUFX4
ABUFX4_166 [_8279_] _8279__bF$buf1 d_lut_BUFX4
ABUFX4_167 [_8279_] _8279__bF$buf0 d_lut_BUFX4
ABUFX4_168 [_15055_] _15055__bF$buf13 d_lut_BUFX4
ABUFX4_169 [_15055_] _15055__bF$buf12 d_lut_BUFX4
ABUFX4_170 [_15055_] _15055__bF$buf11 d_lut_BUFX4
ABUFX4_171 [_15055_] _15055__bF$buf10 d_lut_BUFX4
ABUFX4_172 [_15055_] _15055__bF$buf9 d_lut_BUFX4
ABUFX4_173 [_15055_] _15055__bF$buf8 d_lut_BUFX4
ABUFX4_174 [_15055_] _15055__bF$buf7 d_lut_BUFX4
ABUFX4_175 [_15055_] _15055__bF$buf6 d_lut_BUFX4
ABUFX4_176 [_15055_] _15055__bF$buf5 d_lut_BUFX4
ABUFX4_177 [_15055_] _15055__bF$buf4 d_lut_BUFX4
ABUFX4_178 [_15055_] _15055__bF$buf3 d_lut_BUFX4
ABUFX4_179 [_15055_] _15055__bF$buf2 d_lut_BUFX4
ABUFX4_180 [_15055_] _15055__bF$buf1 d_lut_BUFX4
ABUFX4_181 [_15055_] _15055__bF$buf0 d_lut_BUFX4
ABUFX4_182 [IDATA_PROG_data_14_] IDATA_PROG_data_14_bF$buf4 d_lut_BUFX4
ABUFX4_183 [IDATA_PROG_data_14_] IDATA_PROG_data_14_bF$buf3 d_lut_BUFX4
ABUFX4_184 [IDATA_PROG_data_14_] IDATA_PROG_data_14_bF$buf2 d_lut_BUFX4
ABUFX4_185 [IDATA_PROG_data_14_] IDATA_PROG_data_14_bF$buf1 d_lut_BUFX4
ABUFX4_186 [IDATA_PROG_data_14_] IDATA_PROG_data_14_bF$buf0 d_lut_BUFX4
ABUFX4_187 [IDATA_PROG_data_8_] IDATA_PROG_data_8_bF$buf4 d_lut_BUFX4
ABUFX4_188 [IDATA_PROG_data_8_] IDATA_PROG_data_8_bF$buf3 d_lut_BUFX4
ABUFX4_189 [IDATA_PROG_data_8_] IDATA_PROG_data_8_bF$buf2 d_lut_BUFX4
ABUFX4_190 [IDATA_PROG_data_8_] IDATA_PROG_data_8_bF$buf1 d_lut_BUFX4
ABUFX4_191 [IDATA_PROG_data_8_] IDATA_PROG_data_8_bF$buf0 d_lut_BUFX4
ABUFX4_192 [_15052_] _15052__bF$buf13 d_lut_BUFX4
ABUFX4_193 [_15052_] _15052__bF$buf12 d_lut_BUFX4
ABUFX4_194 [_15052_] _15052__bF$buf11 d_lut_BUFX4
ABUFX4_195 [_15052_] _15052__bF$buf10 d_lut_BUFX4
ABUFX4_196 [_15052_] _15052__bF$buf9 d_lut_BUFX4
ABUFX4_197 [_15052_] _15052__bF$buf8 d_lut_BUFX4
ABUFX4_198 [_15052_] _15052__bF$buf7 d_lut_BUFX4
ABUFX4_199 [_15052_] _15052__bF$buf6 d_lut_BUFX4
ABUFX4_200 [_15052_] _15052__bF$buf5 d_lut_BUFX4
ABUFX4_201 [_15052_] _15052__bF$buf4 d_lut_BUFX4
ABUFX4_202 [_15052_] _15052__bF$buf3 d_lut_BUFX4
ABUFX4_203 [_15052_] _15052__bF$buf2 d_lut_BUFX4
ABUFX4_204 [_15052_] _15052__bF$buf1 d_lut_BUFX4
ABUFX4_205 [_15052_] _15052__bF$buf0 d_lut_BUFX4
ABUFX4_206 [_7259_] _7259__bF$buf3 d_lut_BUFX4
ABUFX4_207 [_7259_] _7259__bF$buf2 d_lut_BUFX4
ABUFX4_208 [_7259_] _7259__bF$buf1 d_lut_BUFX4
ABUFX4_209 [_7259_] _7259__bF$buf0 d_lut_BUFX4
ABUFX4_210 [_15049_] _15049__bF$buf14 d_lut_BUFX4
ABUFX4_211 [_15049_] _15049__bF$buf13 d_lut_BUFX4
ABUFX4_212 [_15049_] _15049__bF$buf12 d_lut_BUFX4
ABUFX4_213 [_15049_] _15049__bF$buf11 d_lut_BUFX4
ABUFX4_214 [_15049_] _15049__bF$buf10 d_lut_BUFX4
ABUFX4_215 [_15049_] _15049__bF$buf9 d_lut_BUFX4
ABUFX4_216 [_15049_] _15049__bF$buf8 d_lut_BUFX4
ABUFX4_217 [_15049_] _15049__bF$buf7 d_lut_BUFX4
ABUFX4_218 [_15049_] _15049__bF$buf6 d_lut_BUFX4
ABUFX4_219 [_15049_] _15049__bF$buf5 d_lut_BUFX4
ABUFX4_220 [_15049_] _15049__bF$buf4 d_lut_BUFX4
ABUFX4_221 [_15049_] _15049__bF$buf3 d_lut_BUFX4
ABUFX4_222 [_15049_] _15049__bF$buf2 d_lut_BUFX4
ABUFX4_223 [_15049_] _15049__bF$buf1 d_lut_BUFX4
ABUFX4_224 [_15049_] _15049__bF$buf0 d_lut_BUFX4
ABUFX4_225 [_6912_] _6912__bF$buf3 d_lut_BUFX4
ABUFX4_226 [_6912_] _6912__bF$buf2 d_lut_BUFX4
ABUFX4_227 [_6912_] _6912__bF$buf1 d_lut_BUFX4
ABUFX4_228 [_6912_] _6912__bF$buf0 d_lut_BUFX4
ABUFX4_229 [IDATA_PROG_data_11_] IDATA_PROG_data_11_bF$buf4 d_lut_BUFX4
ABUFX4_230 [IDATA_PROG_data_11_] IDATA_PROG_data_11_bF$buf3 d_lut_BUFX4
ABUFX4_231 [IDATA_PROG_data_11_] IDATA_PROG_data_11_bF$buf2 d_lut_BUFX4
ABUFX4_232 [IDATA_PROG_data_11_] IDATA_PROG_data_11_bF$buf1 d_lut_BUFX4
ABUFX4_233 [IDATA_PROG_data_11_] IDATA_PROG_data_11_bF$buf0 d_lut_BUFX4
ABUFX4_234 [IDATA_PROG_data_5_] IDATA_PROG_data_5_bF$buf4 d_lut_BUFX4
ABUFX4_235 [IDATA_PROG_data_5_] IDATA_PROG_data_5_bF$buf3 d_lut_BUFX4
ABUFX4_236 [IDATA_PROG_data_5_] IDATA_PROG_data_5_bF$buf2 d_lut_BUFX4
ABUFX4_237 [IDATA_PROG_data_5_] IDATA_PROG_data_5_bF$buf1 d_lut_BUFX4
ABUFX4_238 [IDATA_PROG_data_5_] IDATA_PROG_data_5_bF$buf0 d_lut_BUFX4
ABUFX4_239 [_15011_] _15011__bF$buf3 d_lut_BUFX4
ABUFX4_240 [_15011_] _15011__bF$buf2 d_lut_BUFX4
ABUFX4_241 [_15011_] _15011__bF$buf1 d_lut_BUFX4
ABUFX4_242 [_15011_] _15011__bF$buf0 d_lut_BUFX4
ABUFX4_243 [IDATA_PROG_write] IDATA_PROG_write_bF$buf8 d_lut_BUFX4
ABUFX4_244 [IDATA_PROG_write] IDATA_PROG_write_bF$buf7 d_lut_BUFX4
ABUFX4_245 [IDATA_PROG_write] IDATA_PROG_write_bF$buf6 d_lut_BUFX4
ABUFX4_246 [IDATA_PROG_write] IDATA_PROG_write_bF$buf5 d_lut_BUFX4
ABUFX4_247 [IDATA_PROG_write] IDATA_PROG_write_bF$buf4 d_lut_BUFX4
ABUFX4_248 [IDATA_PROG_write] IDATA_PROG_write_bF$buf3 d_lut_BUFX4
ABUFX4_249 [IDATA_PROG_write] IDATA_PROG_write_bF$buf2 d_lut_BUFX4
ABUFX4_250 [IDATA_PROG_write] IDATA_PROG_write_bF$buf1 d_lut_BUFX4
ABUFX4_251 [IDATA_PROG_write] IDATA_PROG_write_bF$buf0 d_lut_BUFX4
ABUFX4_252 [_1815_] _1815__bF$buf3 d_lut_BUFX4
ABUFX4_253 [_1815_] _1815__bF$buf2 d_lut_BUFX4
ABUFX4_254 [_1815_] _1815__bF$buf1 d_lut_BUFX4
ABUFX4_255 [_1815_] _1815__bF$buf0 d_lut_BUFX4
ABUFX4_256 [_2065_] _2065__bF$buf3 d_lut_BUFX4
ABUFX4_257 [_2065_] _2065__bF$buf2 d_lut_BUFX4
ABUFX4_258 [_2065_] _2065__bF$buf1 d_lut_BUFX4
ABUFX4_259 [_2065_] _2065__bF$buf0 d_lut_BUFX4
ABUFX4_260 [_4763_] _4763__bF$buf3 d_lut_BUFX4
ABUFX4_261 [_4763_] _4763__bF$buf2 d_lut_BUFX4
ABUFX4_262 [_4763_] _4763__bF$buf1 d_lut_BUFX4
ABUFX4_263 [_4763_] _4763__bF$buf0 d_lut_BUFX4
ABUFX4_264 [IDATA_PROG_data_2_] IDATA_PROG_data_2_bF$buf3 d_lut_BUFX4
ABUFX4_265 [IDATA_PROG_data_2_] IDATA_PROG_data_2_bF$buf2 d_lut_BUFX4
ABUFX4_266 [IDATA_PROG_data_2_] IDATA_PROG_data_2_bF$buf1 d_lut_BUFX4
ABUFX4_267 [IDATA_PROG_data_2_] IDATA_PROG_data_2_bF$buf0 d_lut_BUFX4
ABUFX4_268 [_8364_] _8364__bF$buf3 d_lut_BUFX4
ABUFX4_269 [_8364_] _8364__bF$buf2 d_lut_BUFX4
ABUFX4_270 [_8364_] _8364__bF$buf1 d_lut_BUFX4
ABUFX4_271 [_8364_] _8364__bF$buf0 d_lut_BUFX4
ABUFX4_272 [_1812_] _1812__bF$buf3 d_lut_BUFX4
ABUFX4_273 [_1812_] _1812__bF$buf2 d_lut_BUFX4
ABUFX4_274 [_1812_] _1812__bF$buf1 d_lut_BUFX4
ABUFX4_275 [_1812_] _1812__bF$buf0 d_lut_BUFX4
ABUFX4_276 [clk_hier0_bF$buf15] clk_bF$buf255 d_lut_BUFX4
ABUFX4_277 [clk_hier0_bF$buf14] clk_bF$buf254 d_lut_BUFX4
ABUFX4_278 [clk_hier0_bF$buf13] clk_bF$buf253 d_lut_BUFX4
ABUFX4_279 [clk_hier0_bF$buf12] clk_bF$buf252 d_lut_BUFX4
ABUFX4_280 [clk_hier0_bF$buf11] clk_bF$buf251 d_lut_BUFX4
ABUFX4_281 [clk_hier0_bF$buf10] clk_bF$buf250 d_lut_BUFX4
ABUFX4_282 [clk_hier0_bF$buf9] clk_bF$buf249 d_lut_BUFX4
ABUFX4_283 [clk_hier0_bF$buf8] clk_bF$buf248 d_lut_BUFX4
ABUFX4_284 [clk_hier0_bF$buf7] clk_bF$buf247 d_lut_BUFX4
ABUFX4_285 [clk_hier0_bF$buf6] clk_bF$buf246 d_lut_BUFX4
ABUFX4_286 [clk_hier0_bF$buf5] clk_bF$buf245 d_lut_BUFX4
ABUFX4_287 [clk_hier0_bF$buf4] clk_bF$buf244 d_lut_BUFX4
ABUFX4_288 [clk_hier0_bF$buf3] clk_bF$buf243 d_lut_BUFX4
ABUFX4_289 [clk_hier0_bF$buf2] clk_bF$buf242 d_lut_BUFX4
ABUFX4_290 [clk_hier0_bF$buf1] clk_bF$buf241 d_lut_BUFX4
ABUFX4_291 [clk_hier0_bF$buf0] clk_bF$buf240 d_lut_BUFX4
ABUFX4_292 [clk_hier0_bF$buf15] clk_bF$buf239 d_lut_BUFX4
ABUFX4_293 [clk_hier0_bF$buf14] clk_bF$buf238 d_lut_BUFX4
ABUFX4_294 [clk_hier0_bF$buf13] clk_bF$buf237 d_lut_BUFX4
ABUFX4_295 [clk_hier0_bF$buf12] clk_bF$buf236 d_lut_BUFX4
ABUFX4_296 [clk_hier0_bF$buf11] clk_bF$buf235 d_lut_BUFX4
ABUFX4_297 [clk_hier0_bF$buf10] clk_bF$buf234 d_lut_BUFX4
ABUFX4_298 [clk_hier0_bF$buf9] clk_bF$buf233 d_lut_BUFX4
ABUFX4_299 [clk_hier0_bF$buf8] clk_bF$buf232 d_lut_BUFX4
ABUFX4_300 [clk_hier0_bF$buf7] clk_bF$buf231 d_lut_BUFX4
ABUFX4_301 [clk_hier0_bF$buf6] clk_bF$buf230 d_lut_BUFX4
ABUFX4_302 [clk_hier0_bF$buf5] clk_bF$buf229 d_lut_BUFX4
ABUFX4_303 [clk_hier0_bF$buf4] clk_bF$buf228 d_lut_BUFX4
ABUFX4_304 [clk_hier0_bF$buf3] clk_bF$buf227 d_lut_BUFX4
ABUFX4_305 [clk_hier0_bF$buf2] clk_bF$buf226 d_lut_BUFX4
ABUFX4_306 [clk_hier0_bF$buf1] clk_bF$buf225 d_lut_BUFX4
ABUFX4_307 [clk_hier0_bF$buf0] clk_bF$buf224 d_lut_BUFX4
ABUFX4_308 [clk_hier0_bF$buf15] clk_bF$buf223 d_lut_BUFX4
ABUFX4_309 [clk_hier0_bF$buf14] clk_bF$buf222 d_lut_BUFX4
ABUFX4_310 [clk_hier0_bF$buf13] clk_bF$buf221 d_lut_BUFX4
ABUFX4_311 [clk_hier0_bF$buf12] clk_bF$buf220 d_lut_BUFX4
ABUFX4_312 [clk_hier0_bF$buf11] clk_bF$buf219 d_lut_BUFX4
ABUFX4_313 [clk_hier0_bF$buf10] clk_bF$buf218 d_lut_BUFX4
ABUFX4_314 [clk_hier0_bF$buf9] clk_bF$buf217 d_lut_BUFX4
ABUFX4_315 [clk_hier0_bF$buf8] clk_bF$buf216 d_lut_BUFX4
ABUFX4_316 [clk_hier0_bF$buf7] clk_bF$buf215 d_lut_BUFX4
ABUFX4_317 [clk_hier0_bF$buf6] clk_bF$buf214 d_lut_BUFX4
ABUFX4_318 [clk_hier0_bF$buf5] clk_bF$buf213 d_lut_BUFX4
ABUFX4_319 [clk_hier0_bF$buf4] clk_bF$buf212 d_lut_BUFX4
ABUFX4_320 [clk_hier0_bF$buf3] clk_bF$buf211 d_lut_BUFX4
ABUFX4_321 [clk_hier0_bF$buf2] clk_bF$buf210 d_lut_BUFX4
ABUFX4_322 [clk_hier0_bF$buf1] clk_bF$buf209 d_lut_BUFX4
ABUFX4_323 [clk_hier0_bF$buf0] clk_bF$buf208 d_lut_BUFX4
ABUFX4_324 [clk_hier0_bF$buf15] clk_bF$buf207 d_lut_BUFX4
ABUFX4_325 [clk_hier0_bF$buf14] clk_bF$buf206 d_lut_BUFX4
ABUFX4_326 [clk_hier0_bF$buf13] clk_bF$buf205 d_lut_BUFX4
ABUFX4_327 [clk_hier0_bF$buf12] clk_bF$buf204 d_lut_BUFX4
ABUFX4_328 [clk_hier0_bF$buf11] clk_bF$buf203 d_lut_BUFX4
ABUFX4_329 [clk_hier0_bF$buf10] clk_bF$buf202 d_lut_BUFX4
ABUFX4_330 [clk_hier0_bF$buf9] clk_bF$buf201 d_lut_BUFX4
ABUFX4_331 [clk_hier0_bF$buf8] clk_bF$buf200 d_lut_BUFX4
ABUFX4_332 [clk_hier0_bF$buf7] clk_bF$buf199 d_lut_BUFX4
ABUFX4_333 [clk_hier0_bF$buf6] clk_bF$buf198 d_lut_BUFX4
ABUFX4_334 [clk_hier0_bF$buf5] clk_bF$buf197 d_lut_BUFX4
ABUFX4_335 [clk_hier0_bF$buf4] clk_bF$buf196 d_lut_BUFX4
ABUFX4_336 [clk_hier0_bF$buf3] clk_bF$buf195 d_lut_BUFX4
ABUFX4_337 [clk_hier0_bF$buf2] clk_bF$buf194 d_lut_BUFX4
ABUFX4_338 [clk_hier0_bF$buf1] clk_bF$buf193 d_lut_BUFX4
ABUFX4_339 [clk_hier0_bF$buf0] clk_bF$buf192 d_lut_BUFX4
ABUFX4_340 [clk_hier0_bF$buf15] clk_bF$buf191 d_lut_BUFX4
ABUFX4_341 [clk_hier0_bF$buf14] clk_bF$buf190 d_lut_BUFX4
ABUFX4_342 [clk_hier0_bF$buf13] clk_bF$buf189 d_lut_BUFX4
ABUFX4_343 [clk_hier0_bF$buf12] clk_bF$buf188 d_lut_BUFX4
ABUFX4_344 [clk_hier0_bF$buf11] clk_bF$buf187 d_lut_BUFX4
ABUFX4_345 [clk_hier0_bF$buf10] clk_bF$buf186 d_lut_BUFX4
ABUFX4_346 [clk_hier0_bF$buf9] clk_bF$buf185 d_lut_BUFX4
ABUFX4_347 [clk_hier0_bF$buf8] clk_bF$buf184 d_lut_BUFX4
ABUFX4_348 [clk_hier0_bF$buf7] clk_bF$buf183 d_lut_BUFX4
ABUFX4_349 [clk_hier0_bF$buf6] clk_bF$buf182 d_lut_BUFX4
ABUFX4_350 [clk_hier0_bF$buf5] clk_bF$buf181 d_lut_BUFX4
ABUFX4_351 [clk_hier0_bF$buf4] clk_bF$buf180 d_lut_BUFX4
ABUFX4_352 [clk_hier0_bF$buf3] clk_bF$buf179 d_lut_BUFX4
ABUFX4_353 [clk_hier0_bF$buf2] clk_bF$buf178 d_lut_BUFX4
ABUFX4_354 [clk_hier0_bF$buf1] clk_bF$buf177 d_lut_BUFX4
ABUFX4_355 [clk_hier0_bF$buf0] clk_bF$buf176 d_lut_BUFX4
ABUFX4_356 [clk_hier0_bF$buf15] clk_bF$buf175 d_lut_BUFX4
ABUFX4_357 [clk_hier0_bF$buf14] clk_bF$buf174 d_lut_BUFX4
ABUFX4_358 [clk_hier0_bF$buf13] clk_bF$buf173 d_lut_BUFX4
ABUFX4_359 [clk_hier0_bF$buf12] clk_bF$buf172 d_lut_BUFX4
ABUFX4_360 [clk_hier0_bF$buf11] clk_bF$buf171 d_lut_BUFX4
ABUFX4_361 [clk_hier0_bF$buf10] clk_bF$buf170 d_lut_BUFX4
ABUFX4_362 [clk_hier0_bF$buf9] clk_bF$buf169 d_lut_BUFX4
ABUFX4_363 [clk_hier0_bF$buf8] clk_bF$buf168 d_lut_BUFX4
ABUFX4_364 [clk_hier0_bF$buf7] clk_bF$buf167 d_lut_BUFX4
ABUFX4_365 [clk_hier0_bF$buf6] clk_bF$buf166 d_lut_BUFX4
ABUFX4_366 [clk_hier0_bF$buf5] clk_bF$buf165 d_lut_BUFX4
ABUFX4_367 [clk_hier0_bF$buf4] clk_bF$buf164 d_lut_BUFX4
ABUFX4_368 [clk_hier0_bF$buf3] clk_bF$buf163 d_lut_BUFX4
ABUFX4_369 [clk_hier0_bF$buf2] clk_bF$buf162 d_lut_BUFX4
ABUFX4_370 [clk_hier0_bF$buf1] clk_bF$buf161 d_lut_BUFX4
ABUFX4_371 [clk_hier0_bF$buf0] clk_bF$buf160 d_lut_BUFX4
ABUFX4_372 [clk_hier0_bF$buf15] clk_bF$buf159 d_lut_BUFX4
ABUFX4_373 [clk_hier0_bF$buf14] clk_bF$buf158 d_lut_BUFX4
ABUFX4_374 [clk_hier0_bF$buf13] clk_bF$buf157 d_lut_BUFX4
ABUFX4_375 [clk_hier0_bF$buf12] clk_bF$buf156 d_lut_BUFX4
ABUFX4_376 [clk_hier0_bF$buf11] clk_bF$buf155 d_lut_BUFX4
ABUFX4_377 [clk_hier0_bF$buf10] clk_bF$buf154 d_lut_BUFX4
ABUFX4_378 [clk_hier0_bF$buf9] clk_bF$buf153 d_lut_BUFX4
ABUFX4_379 [clk_hier0_bF$buf8] clk_bF$buf152 d_lut_BUFX4
ABUFX4_380 [clk_hier0_bF$buf7] clk_bF$buf151 d_lut_BUFX4
ABUFX4_381 [clk_hier0_bF$buf6] clk_bF$buf150 d_lut_BUFX4
ABUFX4_382 [clk_hier0_bF$buf5] clk_bF$buf149 d_lut_BUFX4
ABUFX4_383 [clk_hier0_bF$buf4] clk_bF$buf148 d_lut_BUFX4
ABUFX4_384 [clk_hier0_bF$buf3] clk_bF$buf147 d_lut_BUFX4
ABUFX4_385 [clk_hier0_bF$buf2] clk_bF$buf146 d_lut_BUFX4
ABUFX4_386 [clk_hier0_bF$buf1] clk_bF$buf145 d_lut_BUFX4
ABUFX4_387 [clk_hier0_bF$buf0] clk_bF$buf144 d_lut_BUFX4
ABUFX4_388 [clk_hier0_bF$buf15] clk_bF$buf143 d_lut_BUFX4
ABUFX4_389 [clk_hier0_bF$buf14] clk_bF$buf142 d_lut_BUFX4
ABUFX4_390 [clk_hier0_bF$buf13] clk_bF$buf141 d_lut_BUFX4
ABUFX4_391 [clk_hier0_bF$buf12] clk_bF$buf140 d_lut_BUFX4
ABUFX4_392 [clk_hier0_bF$buf11] clk_bF$buf139 d_lut_BUFX4
ABUFX4_393 [clk_hier0_bF$buf10] clk_bF$buf138 d_lut_BUFX4
ABUFX4_394 [clk_hier0_bF$buf9] clk_bF$buf137 d_lut_BUFX4
ABUFX4_395 [clk_hier0_bF$buf8] clk_bF$buf136 d_lut_BUFX4
ABUFX4_396 [clk_hier0_bF$buf7] clk_bF$buf135 d_lut_BUFX4
ABUFX4_397 [clk_hier0_bF$buf6] clk_bF$buf134 d_lut_BUFX4
ABUFX4_398 [clk_hier0_bF$buf5] clk_bF$buf133 d_lut_BUFX4
ABUFX4_399 [clk_hier0_bF$buf4] clk_bF$buf132 d_lut_BUFX4
ABUFX4_400 [clk_hier0_bF$buf3] clk_bF$buf131 d_lut_BUFX4
ABUFX4_401 [clk_hier0_bF$buf2] clk_bF$buf130 d_lut_BUFX4
ABUFX4_402 [clk_hier0_bF$buf1] clk_bF$buf129 d_lut_BUFX4
ABUFX4_403 [clk_hier0_bF$buf0] clk_bF$buf128 d_lut_BUFX4
ABUFX4_404 [clk_hier0_bF$buf15] clk_bF$buf127 d_lut_BUFX4
ABUFX4_405 [clk_hier0_bF$buf14] clk_bF$buf126 d_lut_BUFX4
ABUFX4_406 [clk_hier0_bF$buf13] clk_bF$buf125 d_lut_BUFX4
ABUFX4_407 [clk_hier0_bF$buf12] clk_bF$buf124 d_lut_BUFX4
ABUFX4_408 [clk_hier0_bF$buf11] clk_bF$buf123 d_lut_BUFX4
ABUFX4_409 [clk_hier0_bF$buf10] clk_bF$buf122 d_lut_BUFX4
ABUFX4_410 [clk_hier0_bF$buf9] clk_bF$buf121 d_lut_BUFX4
ABUFX4_411 [clk_hier0_bF$buf8] clk_bF$buf120 d_lut_BUFX4
ABUFX4_412 [clk_hier0_bF$buf7] clk_bF$buf119 d_lut_BUFX4
ABUFX4_413 [clk_hier0_bF$buf6] clk_bF$buf118 d_lut_BUFX4
ABUFX4_414 [clk_hier0_bF$buf5] clk_bF$buf117 d_lut_BUFX4
ABUFX4_415 [clk_hier0_bF$buf4] clk_bF$buf116 d_lut_BUFX4
ABUFX4_416 [clk_hier0_bF$buf3] clk_bF$buf115 d_lut_BUFX4
ABUFX4_417 [clk_hier0_bF$buf2] clk_bF$buf114 d_lut_BUFX4
ABUFX4_418 [clk_hier0_bF$buf1] clk_bF$buf113 d_lut_BUFX4
ABUFX4_419 [clk_hier0_bF$buf0] clk_bF$buf112 d_lut_BUFX4
ABUFX4_420 [clk_hier0_bF$buf15] clk_bF$buf111 d_lut_BUFX4
ABUFX4_421 [clk_hier0_bF$buf14] clk_bF$buf110 d_lut_BUFX4
ABUFX4_422 [clk_hier0_bF$buf13] clk_bF$buf109 d_lut_BUFX4
ABUFX4_423 [clk_hier0_bF$buf12] clk_bF$buf108 d_lut_BUFX4
ABUFX4_424 [clk_hier0_bF$buf11] clk_bF$buf107 d_lut_BUFX4
ABUFX4_425 [clk_hier0_bF$buf10] clk_bF$buf106 d_lut_BUFX4
ABUFX4_426 [clk_hier0_bF$buf9] clk_bF$buf105 d_lut_BUFX4
ABUFX4_427 [clk_hier0_bF$buf8] clk_bF$buf104 d_lut_BUFX4
ABUFX4_428 [clk_hier0_bF$buf7] clk_bF$buf103 d_lut_BUFX4
ABUFX4_429 [clk_hier0_bF$buf6] clk_bF$buf102 d_lut_BUFX4
ABUFX4_430 [clk_hier0_bF$buf5] clk_bF$buf101 d_lut_BUFX4
ABUFX4_431 [clk_hier0_bF$buf4] clk_bF$buf100 d_lut_BUFX4
ABUFX4_432 [clk_hier0_bF$buf3] clk_bF$buf99 d_lut_BUFX4
ABUFX4_433 [clk_hier0_bF$buf2] clk_bF$buf98 d_lut_BUFX4
ABUFX4_434 [clk_hier0_bF$buf1] clk_bF$buf97 d_lut_BUFX4
ABUFX4_435 [clk_hier0_bF$buf0] clk_bF$buf96 d_lut_BUFX4
ABUFX4_436 [clk_hier0_bF$buf15] clk_bF$buf95 d_lut_BUFX4
ABUFX4_437 [clk_hier0_bF$buf14] clk_bF$buf94 d_lut_BUFX4
ABUFX4_438 [clk_hier0_bF$buf13] clk_bF$buf93 d_lut_BUFX4
ABUFX4_439 [clk_hier0_bF$buf12] clk_bF$buf92 d_lut_BUFX4
ABUFX4_440 [clk_hier0_bF$buf11] clk_bF$buf91 d_lut_BUFX4
ABUFX4_441 [clk_hier0_bF$buf10] clk_bF$buf90 d_lut_BUFX4
ABUFX4_442 [clk_hier0_bF$buf9] clk_bF$buf89 d_lut_BUFX4
ABUFX4_443 [clk_hier0_bF$buf8] clk_bF$buf88 d_lut_BUFX4
ABUFX4_444 [clk_hier0_bF$buf7] clk_bF$buf87 d_lut_BUFX4
ABUFX4_445 [clk_hier0_bF$buf6] clk_bF$buf86 d_lut_BUFX4
ABUFX4_446 [clk_hier0_bF$buf5] clk_bF$buf85 d_lut_BUFX4
ABUFX4_447 [clk_hier0_bF$buf4] clk_bF$buf84 d_lut_BUFX4
ABUFX4_448 [clk_hier0_bF$buf3] clk_bF$buf83 d_lut_BUFX4
ABUFX4_449 [clk_hier0_bF$buf2] clk_bF$buf82 d_lut_BUFX4
ABUFX4_450 [clk_hier0_bF$buf1] clk_bF$buf81 d_lut_BUFX4
ABUFX4_451 [clk_hier0_bF$buf0] clk_bF$buf80 d_lut_BUFX4
ABUFX4_452 [clk_hier0_bF$buf15] clk_bF$buf79 d_lut_BUFX4
ABUFX4_453 [clk_hier0_bF$buf14] clk_bF$buf78 d_lut_BUFX4
ABUFX4_454 [clk_hier0_bF$buf13] clk_bF$buf77 d_lut_BUFX4
ABUFX4_455 [clk_hier0_bF$buf12] clk_bF$buf76 d_lut_BUFX4
ABUFX4_456 [clk_hier0_bF$buf11] clk_bF$buf75 d_lut_BUFX4
ABUFX4_457 [clk_hier0_bF$buf10] clk_bF$buf74 d_lut_BUFX4
ABUFX4_458 [clk_hier0_bF$buf9] clk_bF$buf73 d_lut_BUFX4
ABUFX4_459 [clk_hier0_bF$buf8] clk_bF$buf72 d_lut_BUFX4
ABUFX4_460 [clk_hier0_bF$buf7] clk_bF$buf71 d_lut_BUFX4
ABUFX4_461 [clk_hier0_bF$buf6] clk_bF$buf70 d_lut_BUFX4
ABUFX4_462 [clk_hier0_bF$buf5] clk_bF$buf69 d_lut_BUFX4
ABUFX4_463 [clk_hier0_bF$buf4] clk_bF$buf68 d_lut_BUFX4
ABUFX4_464 [clk_hier0_bF$buf3] clk_bF$buf67 d_lut_BUFX4
ABUFX4_465 [clk_hier0_bF$buf2] clk_bF$buf66 d_lut_BUFX4
ABUFX4_466 [clk_hier0_bF$buf1] clk_bF$buf65 d_lut_BUFX4
ABUFX4_467 [clk_hier0_bF$buf0] clk_bF$buf64 d_lut_BUFX4
ABUFX4_468 [clk_hier0_bF$buf15] clk_bF$buf63 d_lut_BUFX4
ABUFX4_469 [clk_hier0_bF$buf14] clk_bF$buf62 d_lut_BUFX4
ABUFX4_470 [clk_hier0_bF$buf13] clk_bF$buf61 d_lut_BUFX4
ABUFX4_471 [clk_hier0_bF$buf12] clk_bF$buf60 d_lut_BUFX4
ABUFX4_472 [clk_hier0_bF$buf11] clk_bF$buf59 d_lut_BUFX4
ABUFX4_473 [clk_hier0_bF$buf10] clk_bF$buf58 d_lut_BUFX4
ABUFX4_474 [clk_hier0_bF$buf9] clk_bF$buf57 d_lut_BUFX4
ABUFX4_475 [clk_hier0_bF$buf8] clk_bF$buf56 d_lut_BUFX4
ABUFX4_476 [clk_hier0_bF$buf7] clk_bF$buf55 d_lut_BUFX4
ABUFX4_477 [clk_hier0_bF$buf6] clk_bF$buf54 d_lut_BUFX4
ABUFX4_478 [clk_hier0_bF$buf5] clk_bF$buf53 d_lut_BUFX4
ABUFX4_479 [clk_hier0_bF$buf4] clk_bF$buf52 d_lut_BUFX4
ABUFX4_480 [clk_hier0_bF$buf3] clk_bF$buf51 d_lut_BUFX4
ABUFX4_481 [clk_hier0_bF$buf2] clk_bF$buf50 d_lut_BUFX4
ABUFX4_482 [clk_hier0_bF$buf1] clk_bF$buf49 d_lut_BUFX4
ABUFX4_483 [clk_hier0_bF$buf0] clk_bF$buf48 d_lut_BUFX4
ABUFX4_484 [clk_hier0_bF$buf15] clk_bF$buf47 d_lut_BUFX4
ABUFX4_485 [clk_hier0_bF$buf14] clk_bF$buf46 d_lut_BUFX4
ABUFX4_486 [clk_hier0_bF$buf13] clk_bF$buf45 d_lut_BUFX4
ABUFX4_487 [clk_hier0_bF$buf12] clk_bF$buf44 d_lut_BUFX4
ABUFX4_488 [clk_hier0_bF$buf11] clk_bF$buf43 d_lut_BUFX4
ABUFX4_489 [clk_hier0_bF$buf10] clk_bF$buf42 d_lut_BUFX4
ABUFX4_490 [clk_hier0_bF$buf9] clk_bF$buf41 d_lut_BUFX4
ABUFX4_491 [clk_hier0_bF$buf8] clk_bF$buf40 d_lut_BUFX4
ABUFX4_492 [clk_hier0_bF$buf7] clk_bF$buf39 d_lut_BUFX4
ABUFX4_493 [clk_hier0_bF$buf6] clk_bF$buf38 d_lut_BUFX4
ABUFX4_494 [clk_hier0_bF$buf5] clk_bF$buf37 d_lut_BUFX4
ABUFX4_495 [clk_hier0_bF$buf4] clk_bF$buf36 d_lut_BUFX4
ABUFX4_496 [clk_hier0_bF$buf3] clk_bF$buf35 d_lut_BUFX4
ABUFX4_497 [clk_hier0_bF$buf2] clk_bF$buf34 d_lut_BUFX4
ABUFX4_498 [clk_hier0_bF$buf1] clk_bF$buf33 d_lut_BUFX4
ABUFX4_499 [clk_hier0_bF$buf0] clk_bF$buf32 d_lut_BUFX4
ABUFX4_500 [clk_hier0_bF$buf15] clk_bF$buf31 d_lut_BUFX4
ABUFX4_501 [clk_hier0_bF$buf14] clk_bF$buf30 d_lut_BUFX4
ABUFX4_502 [clk_hier0_bF$buf13] clk_bF$buf29 d_lut_BUFX4
ABUFX4_503 [clk_hier0_bF$buf12] clk_bF$buf28 d_lut_BUFX4
ABUFX4_504 [clk_hier0_bF$buf11] clk_bF$buf27 d_lut_BUFX4
ABUFX4_505 [clk_hier0_bF$buf10] clk_bF$buf26 d_lut_BUFX4
ABUFX4_506 [clk_hier0_bF$buf9] clk_bF$buf25 d_lut_BUFX4
ABUFX4_507 [clk_hier0_bF$buf8] clk_bF$buf24 d_lut_BUFX4
ABUFX4_508 [clk_hier0_bF$buf7] clk_bF$buf23 d_lut_BUFX4
ABUFX4_509 [clk_hier0_bF$buf6] clk_bF$buf22 d_lut_BUFX4
ABUFX4_510 [clk_hier0_bF$buf5] clk_bF$buf21 d_lut_BUFX4
ABUFX4_511 [clk_hier0_bF$buf4] clk_bF$buf20 d_lut_BUFX4
ABUFX4_512 [clk_hier0_bF$buf3] clk_bF$buf19 d_lut_BUFX4
ABUFX4_513 [clk_hier0_bF$buf2] clk_bF$buf18 d_lut_BUFX4