*SPICE netlist created from BLIF module NRISC_IData by blif2BSpice
.include /usr/local/share/qflow/tech/osu018/osu018_stdcells.sp
.subckt NRISC_IData vdd gnd IDATA_CORE_addr<0> IDATA_CORE_addr<1> IDATA_CORE_addr<2> IDATA_CORE_addr<3> IDATA_CORE_addr<4> IDATA_CORE_addr<5> IDATA_CORE_addr<6> IDATA_CORE_addr<7> IDATA_CORE_addr<8> IDATA_CORE_addr<9> IDATA_CORE_addr<10> IDATA_CORE_addr<11> IDATA_CORE_addr<12> IDATA_CORE_addr<13> IDATA_CORE_addr<14> IDATA_CORE_addr<15> IDATA_PROG_write IDATA_PROG_addr<0> IDATA_PROG_addr<1> IDATA_PROG_addr<2> IDATA_PROG_addr<3> IDATA_PROG_addr<4> IDATA_PROG_addr<5> IDATA_PROG_addr<6> IDATA_PROG_addr<7> IDATA_PROG_addr<8> IDATA_PROG_addr<9> IDATA_PROG_data<0> IDATA_PROG_data<1> IDATA_PROG_data<2> IDATA_PROG_data<3> IDATA_PROG_data<4> IDATA_PROG_data<5> IDATA_PROG_data<6> IDATA_PROG_data<7> IDATA_PROG_data<8> IDATA_PROG_data<9> IDATA_PROG_data<10> IDATA_PROG_data<11> IDATA_PROG_data<12> IDATA_PROG_data<13> IDATA_PROG_data<14> IDATA_PROG_data<15> clk rst IDATA_CORE_out<0> IDATA_CORE_out<1> IDATA_CORE_out<2> IDATA_CORE_out<3> IDATA_CORE_out<4> IDATA_CORE_out<5> IDATA_CORE_out<6> IDATA_CORE_out<7> IDATA_CORE_out<8> IDATA_CORE_out<9> IDATA_CORE_out<10> IDATA_CORE_out<11> IDATA_CORE_out<12> IDATA_CORE_out<13> IDATA_CORE_out<14> IDATA_CORE_out<15> 
XBUFX4_1 vdd gnd clk clk_hier0_bF$buf15 BUFX4
XBUFX4_2 vdd gnd clk clk_hier0_bF$buf14 BUFX4
XBUFX4_3 vdd gnd clk clk_hier0_bF$buf13 BUFX4
XBUFX4_4 vdd gnd clk clk_hier0_bF$buf12 BUFX4
XBUFX4_5 vdd gnd clk clk_hier0_bF$buf11 BUFX4
XBUFX4_6 vdd gnd clk clk_hier0_bF$buf10 BUFX4
XBUFX4_7 vdd gnd clk clk_hier0_bF$buf9 BUFX4
XBUFX4_8 vdd gnd clk clk_hier0_bF$buf8 BUFX4
XBUFX4_9 vdd gnd clk clk_hier0_bF$buf7 BUFX4
XBUFX4_10 vdd gnd clk clk_hier0_bF$buf6 BUFX4
XBUFX4_11 vdd gnd clk clk_hier0_bF$buf5 BUFX4
XBUFX4_12 vdd gnd clk clk_hier0_bF$buf4 BUFX4
XBUFX4_13 vdd gnd clk clk_hier0_bF$buf3 BUFX4
XBUFX4_14 vdd gnd clk clk_hier0_bF$buf2 BUFX4
XBUFX4_15 vdd gnd clk clk_hier0_bF$buf1 BUFX4
XBUFX4_16 vdd gnd clk clk_hier0_bF$buf0 BUFX4
XBUFX4_17 vdd gnd _3393_ _3393__hier0_bF$buf7 BUFX4
XBUFX4_18 vdd gnd _3393_ _3393__hier0_bF$buf6 BUFX4
XBUFX4_19 vdd gnd _3393_ _3393__hier0_bF$buf5 BUFX4
XBUFX4_20 vdd gnd _3393_ _3393__hier0_bF$buf4 BUFX4
XBUFX4_21 vdd gnd _3393_ _3393__hier0_bF$buf3 BUFX4
XBUFX4_22 vdd gnd _3393_ _3393__hier0_bF$buf2 BUFX4
XBUFX4_23 vdd gnd _3393_ _3393__hier0_bF$buf1 BUFX4
XBUFX4_24 vdd gnd _3393_ _3393__hier0_bF$buf0 BUFX4
XBUFX4_25 vdd gnd clk_bF$buf121 clk_bF$buf250_bF$buf3 BUFX4
XBUFX4_26 vdd gnd clk_bF$buf4 clk_bF$buf250_bF$buf2 BUFX4
XBUFX4_27 vdd gnd clk_bF$buf129 clk_bF$buf250_bF$buf1 BUFX4
XBUFX4_28 vdd gnd clk_bF$buf162 clk_bF$buf250_bF$buf0 BUFX4
XBUFX4_29 vdd gnd clk_bF$buf10 clk_bF$buf251_bF$buf3 BUFX4
XBUFX4_30 vdd gnd clk_bF$buf185 clk_bF$buf251_bF$buf2 BUFX4
XBUFX4_31 vdd gnd clk_bF$buf116 clk_bF$buf251_bF$buf1 BUFX4
XBUFX4_32 vdd gnd clk_bF$buf180 clk_bF$buf251_bF$buf0 BUFX4
XBUFX4_33 vdd gnd clk_bF$buf116 clk_bF$buf252_bF$buf3 BUFX4
XBUFX4_34 vdd gnd clk_bF$buf180 clk_bF$buf252_bF$buf2 BUFX4
XBUFX4_35 vdd gnd clk_bF$buf180 clk_bF$buf252_bF$buf1 BUFX4
XBUFX4_36 vdd gnd clk_bF$buf192 clk_bF$buf252_bF$buf0 BUFX4
XBUFX4_37 vdd gnd clk_bF$buf185 clk_bF$buf253_bF$buf3 BUFX4
XBUFX4_38 vdd gnd clk_bF$buf52 clk_bF$buf253_bF$buf2 BUFX4
XBUFX4_39 vdd gnd clk_bF$buf184 clk_bF$buf253_bF$buf1 BUFX4
XBUFX4_40 vdd gnd clk_bF$buf170 clk_bF$buf253_bF$buf0 BUFX4
XBUFX4_41 vdd gnd clk_bF$buf31 clk_bF$buf254_bF$buf3 BUFX4
XBUFX4_42 vdd gnd clk_bF$buf71 clk_bF$buf254_bF$buf2 BUFX4
XBUFX4_43 vdd gnd clk_bF$buf138 clk_bF$buf254_bF$buf1 BUFX4
XBUFX4_44 vdd gnd clk_bF$buf79 clk_bF$buf254_bF$buf0 BUFX4
XBUFX4_45 vdd gnd clk_bF$buf29 clk_bF$buf255_bF$buf3 BUFX4
XBUFX4_46 vdd gnd clk_bF$buf116 clk_bF$buf255_bF$buf2 BUFX4
XBUFX4_47 vdd gnd clk_bF$buf7 clk_bF$buf255_bF$buf1 BUFX4
XBUFX4_48 vdd gnd clk_bF$buf162 clk_bF$buf255_bF$buf0 BUFX4
XBUFX4_49 vdd gnd _3313_ _3313__hier0_bF$buf8 BUFX4
XBUFX4_50 vdd gnd _3313_ _3313__hier0_bF$buf7 BUFX4
XBUFX4_51 vdd gnd _3313_ _3313__hier0_bF$buf6 BUFX4
XBUFX4_52 vdd gnd _3313_ _3313__hier0_bF$buf5 BUFX4
XBUFX4_53 vdd gnd _3313_ _3313__hier0_bF$buf4 BUFX4
XBUFX4_54 vdd gnd _3313_ _3313__hier0_bF$buf3 BUFX4
XBUFX4_55 vdd gnd _3313_ _3313__hier0_bF$buf2 BUFX4
XBUFX4_56 vdd gnd _3313_ _3313__hier0_bF$buf1 BUFX4
XBUFX4_57 vdd gnd _3313_ _3313__hier0_bF$buf0 BUFX4
XBUFX4_58 vdd gnd clk_bF$buf182 clk_bF$buf240_bF$buf3 BUFX4
XBUFX4_59 vdd gnd clk_bF$buf176 clk_bF$buf240_bF$buf2 BUFX4
XBUFX4_60 vdd gnd clk_bF$buf116 clk_bF$buf240_bF$buf1 BUFX4
XBUFX4_61 vdd gnd clk_bF$buf123 clk_bF$buf240_bF$buf0 BUFX4
XBUFX4_62 vdd gnd clk_bF$buf129 clk_bF$buf241_bF$buf3 BUFX4
XBUFX4_63 vdd gnd clk_bF$buf144 clk_bF$buf241_bF$buf2 BUFX4
XBUFX4_64 vdd gnd clk_bF$buf123 clk_bF$buf241_bF$buf1 BUFX4
XBUFX4_65 vdd gnd clk_bF$buf29 clk_bF$buf241_bF$buf0 BUFX4
XBUFX4_66 vdd gnd clk_bF$buf7 clk_bF$buf242_bF$buf3 BUFX4
XBUFX4_67 vdd gnd clk_bF$buf29 clk_bF$buf242_bF$buf2 BUFX4
XBUFX4_68 vdd gnd clk_bF$buf185 clk_bF$buf242_bF$buf1 BUFX4
XBUFX4_69 vdd gnd clk_bF$buf214 clk_bF$buf242_bF$buf0 BUFX4
XBUFX4_70 vdd gnd clk_bF$buf57 clk_bF$buf243_bF$buf3 BUFX4
XBUFX4_71 vdd gnd clk_bF$buf185 clk_bF$buf243_bF$buf2 BUFX4
XBUFX4_72 vdd gnd clk_bF$buf129 clk_bF$buf243_bF$buf1 BUFX4
XBUFX4_73 vdd gnd clk_bF$buf82 clk_bF$buf243_bF$buf0 BUFX4
XBUFX4_74 vdd gnd clk_bF$buf10 clk_bF$buf244_bF$buf3 BUFX4
XBUFX4_75 vdd gnd clk_bF$buf31 clk_bF$buf244_bF$buf2 BUFX4
XBUFX4_76 vdd gnd clk_bF$buf180 clk_bF$buf244_bF$buf1 BUFX4
XBUFX4_77 vdd gnd clk_bF$buf180 clk_bF$buf244_bF$buf0 BUFX4
XBUFX4_78 vdd gnd clk_bF$buf22 clk_bF$buf245_bF$buf3 BUFX4
XBUFX4_79 vdd gnd clk_bF$buf214 clk_bF$buf245_bF$buf2 BUFX4
XBUFX4_80 vdd gnd clk_bF$buf4 clk_bF$buf245_bF$buf1 BUFX4
XBUFX4_81 vdd gnd clk_bF$buf116 clk_bF$buf245_bF$buf0 BUFX4
XBUFX4_82 vdd gnd clk_bF$buf185 clk_bF$buf246_bF$buf3 BUFX4
XBUFX4_83 vdd gnd clk_bF$buf31 clk_bF$buf246_bF$buf2 BUFX4
XBUFX4_84 vdd gnd clk_bF$buf52 clk_bF$buf246_bF$buf1 BUFX4
XBUFX4_85 vdd gnd clk_bF$buf123 clk_bF$buf246_bF$buf0 BUFX4
XBUFX4_86 vdd gnd clk_bF$buf162 clk_bF$buf247_bF$buf3 BUFX4
XBUFX4_87 vdd gnd clk_bF$buf7 clk_bF$buf247_bF$buf2 BUFX4
XBUFX4_88 vdd gnd clk_bF$buf69 clk_bF$buf247_bF$buf1 BUFX4
XBUFX4_89 vdd gnd clk_bF$buf123 clk_bF$buf247_bF$buf0 BUFX4
XBUFX4_90 vdd gnd clk_bF$buf22 clk_bF$buf248_bF$buf3 BUFX4
XBUFX4_91 vdd gnd clk_bF$buf20 clk_bF$buf248_bF$buf2 BUFX4
XBUFX4_92 vdd gnd clk_bF$buf46 clk_bF$buf248_bF$buf1 BUFX4
XBUFX4_93 vdd gnd clk_bF$buf180 clk_bF$buf248_bF$buf0 BUFX4
XBUFX4_94 vdd gnd clk_bF$buf52 clk_bF$buf249_bF$buf3 BUFX4
XBUFX4_95 vdd gnd clk_bF$buf180 clk_bF$buf249_bF$buf2 BUFX4
XBUFX4_96 vdd gnd clk_bF$buf146 clk_bF$buf249_bF$buf1 BUFX4
XBUFX4_97 vdd gnd clk_bF$buf4 clk_bF$buf249_bF$buf0 BUFX4
XBUFX4_98 vdd gnd _14882__bF$buf4 _14882__bF$buf13_bF$buf3 BUFX4
XBUFX4_99 vdd gnd _14882__bF$buf1 _14882__bF$buf13_bF$buf2 BUFX4
XBUFX4_100 vdd gnd _14882__bF$buf8 _14882__bF$buf13_bF$buf1 BUFX4
XBUFX4_101 vdd gnd _14882__bF$buf3 _14882__bF$buf13_bF$buf0 BUFX4
XBUFX4_102 vdd gnd _14882__bF$buf3 _14882__bF$buf14_bF$buf3 BUFX4
XBUFX4_103 vdd gnd _14882__bF$buf6 _14882__bF$buf14_bF$buf2 BUFX4
XBUFX4_104 vdd gnd _14882__bF$buf12 _14882__bF$buf14_bF$buf1 BUFX4
XBUFX4_105 vdd gnd _14882__bF$buf4 _14882__bF$buf14_bF$buf0 BUFX4
XBUFX4_106 vdd gnd _14882__bF$buf12 _14882__bF$buf15_bF$buf3 BUFX4
XBUFX4_107 vdd gnd _14882__bF$buf3 _14882__bF$buf15_bF$buf2 BUFX4
XBUFX4_108 vdd gnd _14882__bF$buf5 _14882__bF$buf15_bF$buf1 BUFX4
XBUFX4_109 vdd gnd _14882__bF$buf1 _14882__bF$buf15_bF$buf0 BUFX4
XBUFX4_110 vdd gnd _3306_ _3306__bF$buf6 BUFX4
XBUFX4_111 vdd gnd _3306_ _3306__bF$buf5 BUFX4
XBUFX4_112 vdd gnd _3306_ _3306__bF$buf4 BUFX4
XBUFX4_113 vdd gnd _3306_ _3306__bF$buf3 BUFX4
XBUFX4_114 vdd gnd _3306_ _3306__bF$buf2 BUFX4
XBUFX4_115 vdd gnd _3306_ _3306__bF$buf1 BUFX4
XBUFX4_116 vdd gnd _3306_ _3306__bF$buf0 BUFX4
XBUFX4_117 vdd gnd _15120_ _15120__bF$buf3 BUFX4
XBUFX4_118 vdd gnd _15120_ _15120__bF$buf2 BUFX4
XBUFX4_119 vdd gnd _15120_ _15120__bF$buf1 BUFX4
XBUFX4_120 vdd gnd _15120_ _15120__bF$buf0 BUFX4
XBUFX4_121 vdd gnd _8476_ _8476__bF$buf3 BUFX4
XBUFX4_122 vdd gnd _8476_ _8476__bF$buf2 BUFX4
XBUFX4_123 vdd gnd _8476_ _8476__bF$buf1 BUFX4
XBUFX4_124 vdd gnd _8476_ _8476__bF$buf0 BUFX4
XBUFX4_125 vdd gnd _8820_ _8820__bF$buf3 BUFX4
XBUFX4_126 vdd gnd _8820_ _8820__bF$buf2 BUFX4
XBUFX4_127 vdd gnd _8820_ _8820__bF$buf1 BUFX4
XBUFX4_128 vdd gnd _8820_ _8820__bF$buf0 BUFX4
XBUFX4_129 vdd gnd _15575_ _15575__bF$buf3 BUFX4
XBUFX4_130 vdd gnd _15575_ _15575__bF$buf2 BUFX4
XBUFX4_131 vdd gnd _15575_ _15575__bF$buf1 BUFX4
XBUFX4_132 vdd gnd _15575_ _15575__bF$buf0 BUFX4
XBUFX4_133 vdd gnd _2497_ _2497__bF$buf3 BUFX4
XBUFX4_134 vdd gnd _2497_ _2497__bF$buf2 BUFX4
XBUFX4_135 vdd gnd _2497_ _2497__bF$buf1 BUFX4
XBUFX4_136 vdd gnd _2497_ _2497__bF$buf0 BUFX4
XBUFX4_137 vdd gnd _3952_ _3952__bF$buf3 BUFX4
XBUFX4_138 vdd gnd _3952_ _3952__bF$buf2 BUFX4
XBUFX4_139 vdd gnd _3952_ _3952__bF$buf1 BUFX4
XBUFX4_140 vdd gnd _3952_ _3952__bF$buf0 BUFX4
XBUFX4_141 vdd gnd _14978_ _14978__bF$buf4 BUFX4
XBUFX4_142 vdd gnd _14978_ _14978__bF$buf3 BUFX4
XBUFX4_143 vdd gnd _14978_ _14978__bF$buf2 BUFX4
XBUFX4_144 vdd gnd _14978_ _14978__bF$buf1 BUFX4
XBUFX4_145 vdd gnd _14978_ _14978__bF$buf0 BUFX4
XBUFX4_146 vdd gnd _14902_ _14902__bF$buf13 BUFX4
XBUFX4_147 vdd gnd _14902_ _14902__bF$buf12 BUFX4
XBUFX4_148 vdd gnd _14902_ _14902__bF$buf11 BUFX4
XBUFX4_149 vdd gnd _14902_ _14902__bF$buf10 BUFX4
XBUFX4_150 vdd gnd _14902_ _14902__bF$buf9 BUFX4
XBUFX4_151 vdd gnd _14902_ _14902__bF$buf8 BUFX4
XBUFX4_152 vdd gnd _14902_ _14902__bF$buf7 BUFX4
XBUFX4_153 vdd gnd _14902_ _14902__bF$buf6 BUFX4
XBUFX4_154 vdd gnd _14902_ _14902__bF$buf5 BUFX4
XBUFX4_155 vdd gnd _14902_ _14902__bF$buf4 BUFX4
XBUFX4_156 vdd gnd _14902_ _14902__bF$buf3 BUFX4
XBUFX4_157 vdd gnd _14902_ _14902__bF$buf2 BUFX4
XBUFX4_158 vdd gnd _14902_ _14902__bF$buf1 BUFX4
XBUFX4_159 vdd gnd _14902_ _14902__bF$buf0 BUFX4
XBUFX4_160 vdd gnd _2418_ _2418__bF$buf3 BUFX4
XBUFX4_161 vdd gnd _2418_ _2418__bF$buf2 BUFX4
XBUFX4_162 vdd gnd _2418_ _2418__bF$buf1 BUFX4
XBUFX4_163 vdd gnd _2418_ _2418__bF$buf0 BUFX4
XBUFX4_164 vdd gnd _8279_ _8279__bF$buf3 BUFX4
XBUFX4_165 vdd gnd _8279_ _8279__bF$buf2 BUFX4
XBUFX4_166 vdd gnd _8279_ _8279__bF$buf1 BUFX4
XBUFX4_167 vdd gnd _8279_ _8279__bF$buf0 BUFX4
XBUFX4_168 vdd gnd _15055_ _15055__bF$buf13 BUFX4
XBUFX4_169 vdd gnd _15055_ _15055__bF$buf12 BUFX4
XBUFX4_170 vdd gnd _15055_ _15055__bF$buf11 BUFX4
XBUFX4_171 vdd gnd _15055_ _15055__bF$buf10 BUFX4
XBUFX4_172 vdd gnd _15055_ _15055__bF$buf9 BUFX4
XBUFX4_173 vdd gnd _15055_ _15055__bF$buf8 BUFX4
XBUFX4_174 vdd gnd _15055_ _15055__bF$buf7 BUFX4
XBUFX4_175 vdd gnd _15055_ _15055__bF$buf6 BUFX4
XBUFX4_176 vdd gnd _15055_ _15055__bF$buf5 BUFX4
XBUFX4_177 vdd gnd _15055_ _15055__bF$buf4 BUFX4
XBUFX4_178 vdd gnd _15055_ _15055__bF$buf3 BUFX4
XBUFX4_179 vdd gnd _15055_ _15055__bF$buf2 BUFX4
XBUFX4_180 vdd gnd _15055_ _15055__bF$buf1 BUFX4
XBUFX4_181 vdd gnd _15055_ _15055__bF$buf0 BUFX4
XBUFX4_182 vdd gnd IDATA_PROG_data<14> IDATA_PROG_data_14_bF$buf4 BUFX4
XBUFX4_183 vdd gnd IDATA_PROG_data<14> IDATA_PROG_data_14_bF$buf3 BUFX4
XBUFX4_184 vdd gnd IDATA_PROG_data<14> IDATA_PROG_data_14_bF$buf2 BUFX4
XBUFX4_185 vdd gnd IDATA_PROG_data<14> IDATA_PROG_data_14_bF$buf1 BUFX4
XBUFX4_186 vdd gnd IDATA_PROG_data<14> IDATA_PROG_data_14_bF$buf0 BUFX4
XBUFX4_187 vdd gnd IDATA_PROG_data<8> IDATA_PROG_data_8_bF$buf4 BUFX4
XBUFX4_188 vdd gnd IDATA_PROG_data<8> IDATA_PROG_data_8_bF$buf3 BUFX4
XBUFX4_189 vdd gnd IDATA_PROG_data<8> IDATA_PROG_data_8_bF$buf2 BUFX4
XBUFX4_190 vdd gnd IDATA_PROG_data<8> IDATA_PROG_data_8_bF$buf1 BUFX4
XBUFX4_191 vdd gnd IDATA_PROG_data<8> IDATA_PROG_data_8_bF$buf0 BUFX4
XBUFX4_192 vdd gnd _15052_ _15052__bF$buf13 BUFX4
XBUFX4_193 vdd gnd _15052_ _15052__bF$buf12 BUFX4
XBUFX4_194 vdd gnd _15052_ _15052__bF$buf11 BUFX4
XBUFX4_195 vdd gnd _15052_ _15052__bF$buf10 BUFX4
XBUFX4_196 vdd gnd _15052_ _15052__bF$buf9 BUFX4
XBUFX4_197 vdd gnd _15052_ _15052__bF$buf8 BUFX4
XBUFX4_198 vdd gnd _15052_ _15052__bF$buf7 BUFX4
XBUFX4_199 vdd gnd _15052_ _15052__bF$buf6 BUFX4
XBUFX4_200 vdd gnd _15052_ _15052__bF$buf5 BUFX4
XBUFX4_201 vdd gnd _15052_ _15052__bF$buf4 BUFX4
XBUFX4_202 vdd gnd _15052_ _15052__bF$buf3 BUFX4
XBUFX4_203 vdd gnd _15052_ _15052__bF$buf2 BUFX4
XBUFX4_204 vdd gnd _15052_ _15052__bF$buf1 BUFX4
XBUFX4_205 vdd gnd _15052_ _15052__bF$buf0 BUFX4
XBUFX4_206 vdd gnd _7259_ _7259__bF$buf3 BUFX4
XBUFX4_207 vdd gnd _7259_ _7259__bF$buf2 BUFX4
XBUFX4_208 vdd gnd _7259_ _7259__bF$buf1 BUFX4
XBUFX4_209 vdd gnd _7259_ _7259__bF$buf0 BUFX4
XBUFX4_210 vdd gnd _15049_ _15049__bF$buf14 BUFX4
XBUFX4_211 vdd gnd _15049_ _15049__bF$buf13 BUFX4
XBUFX4_212 vdd gnd _15049_ _15049__bF$buf12 BUFX4
XBUFX4_213 vdd gnd _15049_ _15049__bF$buf11 BUFX4
XBUFX4_214 vdd gnd _15049_ _15049__bF$buf10 BUFX4
XBUFX4_215 vdd gnd _15049_ _15049__bF$buf9 BUFX4
XBUFX4_216 vdd gnd _15049_ _15049__bF$buf8 BUFX4
XBUFX4_217 vdd gnd _15049_ _15049__bF$buf7 BUFX4
XBUFX4_218 vdd gnd _15049_ _15049__bF$buf6 BUFX4
XBUFX4_219 vdd gnd _15049_ _15049__bF$buf5 BUFX4
XBUFX4_220 vdd gnd _15049_ _15049__bF$buf4 BUFX4
XBUFX4_221 vdd gnd _15049_ _15049__bF$buf3 BUFX4
XBUFX4_222 vdd gnd _15049_ _15049__bF$buf2 BUFX4
XBUFX4_223 vdd gnd _15049_ _15049__bF$buf1 BUFX4
XBUFX4_224 vdd gnd _15049_ _15049__bF$buf0 BUFX4
XBUFX4_225 vdd gnd _6912_ _6912__bF$buf3 BUFX4
XBUFX4_226 vdd gnd _6912_ _6912__bF$buf2 BUFX4
XBUFX4_227 vdd gnd _6912_ _6912__bF$buf1 BUFX4
XBUFX4_228 vdd gnd _6912_ _6912__bF$buf0 BUFX4
XBUFX4_229 vdd gnd IDATA_PROG_data<11> IDATA_PROG_data_11_bF$buf4 BUFX4
XBUFX4_230 vdd gnd IDATA_PROG_data<11> IDATA_PROG_data_11_bF$buf3 BUFX4
XBUFX4_231 vdd gnd IDATA_PROG_data<11> IDATA_PROG_data_11_bF$buf2 BUFX4
XBUFX4_232 vdd gnd IDATA_PROG_data<11> IDATA_PROG_data_11_bF$buf1 BUFX4
XBUFX4_233 vdd gnd IDATA_PROG_data<11> IDATA_PROG_data_11_bF$buf0 BUFX4
XBUFX4_234 vdd gnd IDATA_PROG_data<5> IDATA_PROG_data_5_bF$buf4 BUFX4
XBUFX4_235 vdd gnd IDATA_PROG_data<5> IDATA_PROG_data_5_bF$buf3 BUFX4
XBUFX4_236 vdd gnd IDATA_PROG_data<5> IDATA_PROG_data_5_bF$buf2 BUFX4
XBUFX4_237 vdd gnd IDATA_PROG_data<5> IDATA_PROG_data_5_bF$buf1 BUFX4
XBUFX4_238 vdd gnd IDATA_PROG_data<5> IDATA_PROG_data_5_bF$buf0 BUFX4
XBUFX4_239 vdd gnd _15011_ _15011__bF$buf3 BUFX4
XBUFX4_240 vdd gnd _15011_ _15011__bF$buf2 BUFX4
XBUFX4_241 vdd gnd _15011_ _15011__bF$buf1 BUFX4
XBUFX4_242 vdd gnd _15011_ _15011__bF$buf0 BUFX4
XBUFX4_243 vdd gnd IDATA_PROG_write IDATA_PROG_write_bF$buf8 BUFX4
XBUFX4_244 vdd gnd IDATA_PROG_write IDATA_PROG_write_bF$buf7 BUFX4
XBUFX4_245 vdd gnd IDATA_PROG_write IDATA_PROG_write_bF$buf6 BUFX4
XBUFX4_246 vdd gnd IDATA_PROG_write IDATA_PROG_write_bF$buf5 BUFX4
XBUFX4_247 vdd gnd IDATA_PROG_write IDATA_PROG_write_bF$buf4 BUFX4
XBUFX4_248 vdd gnd IDATA_PROG_write IDATA_PROG_write_bF$buf3 BUFX4
XBUFX4_249 vdd gnd IDATA_PROG_write IDATA_PROG_write_bF$buf2 BUFX4
XBUFX4_250 vdd gnd IDATA_PROG_write IDATA_PROG_write_bF$buf1 BUFX4
XBUFX4_251 vdd gnd IDATA_PROG_write IDATA_PROG_write_bF$buf0 BUFX4
XBUFX4_252 vdd gnd _1815_ _1815__bF$buf3 BUFX4
XBUFX4_253 vdd gnd _1815_ _1815__bF$buf2 BUFX4
XBUFX4_254 vdd gnd _1815_ _1815__bF$buf1 BUFX4
XBUFX4_255 vdd gnd _1815_ _1815__bF$buf0 BUFX4
XBUFX4_256 vdd gnd _2065_ _2065__bF$buf3 BUFX4
XBUFX4_257 vdd gnd _2065_ _2065__bF$buf2 BUFX4
XBUFX4_258 vdd gnd _2065_ _2065__bF$buf1 BUFX4
XBUFX4_259 vdd gnd _2065_ _2065__bF$buf0 BUFX4
XBUFX4_260 vdd gnd _4763_ _4763__bF$buf3 BUFX4
XBUFX4_261 vdd gnd _4763_ _4763__bF$buf2 BUFX4
XBUFX4_262 vdd gnd _4763_ _4763__bF$buf1 BUFX4
XBUFX4_263 vdd gnd _4763_ _4763__bF$buf0 BUFX4
XBUFX4_264 vdd gnd IDATA_PROG_data<2> IDATA_PROG_data_2_bF$buf3 BUFX4
XBUFX4_265 vdd gnd IDATA_PROG_data<2> IDATA_PROG_data_2_bF$buf2 BUFX4
XBUFX4_266 vdd gnd IDATA_PROG_data<2> IDATA_PROG_data_2_bF$buf1 BUFX4
XBUFX4_267 vdd gnd IDATA_PROG_data<2> IDATA_PROG_data_2_bF$buf0 BUFX4
XBUFX4_268 vdd gnd _8364_ _8364__bF$buf3 BUFX4
XBUFX4_269 vdd gnd _8364_ _8364__bF$buf2 BUFX4
XBUFX4_270 vdd gnd _8364_ _8364__bF$buf1 BUFX4
XBUFX4_271 vdd gnd _8364_ _8364__bF$buf0 BUFX4
XBUFX4_272 vdd gnd _1812_ _1812__bF$buf3 BUFX4
XBUFX4_273 vdd gnd _1812_ _1812__bF$buf2 BUFX4
XBUFX4_274 vdd gnd _1812_ _1812__bF$buf1 BUFX4
XBUFX4_275 vdd gnd _1812_ _1812__bF$buf0 BUFX4
XBUFX4_276 vdd gnd clk_hier0_bF$buf11 clk_bF$buf255 BUFX4
XBUFX4_277 vdd gnd clk_hier0_bF$buf12 clk_bF$buf254 BUFX4
XBUFX4_278 vdd gnd clk_hier0_bF$buf4 clk_bF$buf253 BUFX4
XBUFX4_279 vdd gnd clk_hier0_bF$buf5 clk_bF$buf252 BUFX4
XBUFX4_280 vdd gnd clk_hier0_bF$buf4 clk_bF$buf251 BUFX4
XBUFX4_281 vdd gnd clk_hier0_bF$buf0 clk_bF$buf250 BUFX4
XBUFX4_282 vdd gnd clk_hier0_bF$buf13 clk_bF$buf249 BUFX4
XBUFX4_283 vdd gnd clk_hier0_bF$buf10 clk_bF$buf248 BUFX4
XBUFX4_284 vdd gnd clk_hier0_bF$buf7 clk_bF$buf247 BUFX4
XBUFX4_285 vdd gnd clk_hier0_bF$buf0 clk_bF$buf246 BUFX4
XBUFX4_286 vdd gnd clk_hier0_bF$buf5 clk_bF$buf245 BUFX4
XBUFX4_287 vdd gnd clk_hier0_bF$buf8 clk_bF$buf244 BUFX4
XBUFX4_288 vdd gnd clk_hier0_bF$buf7 clk_bF$buf243 BUFX4
XBUFX4_289 vdd gnd clk_hier0_bF$buf5 clk_bF$buf242 BUFX4
XBUFX4_290 vdd gnd clk_hier0_bF$buf4 clk_bF$buf241 BUFX4
XBUFX4_291 vdd gnd clk_hier0_bF$buf3 clk_bF$buf240 BUFX4
XBUFX4_292 vdd gnd clk_hier0_bF$buf7 clk_bF$buf239 BUFX4
XBUFX4_293 vdd gnd clk_hier0_bF$buf1 clk_bF$buf238 BUFX4
XBUFX4_294 vdd gnd clk_hier0_bF$buf5 clk_bF$buf237 BUFX4
XBUFX4_295 vdd gnd clk_hier0_bF$buf6 clk_bF$buf236 BUFX4
XBUFX4_296 vdd gnd clk_hier0_bF$buf1 clk_bF$buf235 BUFX4
XBUFX4_297 vdd gnd clk_hier0_bF$buf7 clk_bF$buf234 BUFX4
XBUFX4_298 vdd gnd clk_hier0_bF$buf5 clk_bF$buf233 BUFX4
XBUFX4_299 vdd gnd clk_hier0_bF$buf5 clk_bF$buf232 BUFX4
XBUFX4_300 vdd gnd clk_hier0_bF$buf0 clk_bF$buf231 BUFX4
XBUFX4_301 vdd gnd clk_hier0_bF$buf15 clk_bF$buf230 BUFX4
XBUFX4_302 vdd gnd clk_hier0_bF$buf3 clk_bF$buf229 BUFX4
XBUFX4_303 vdd gnd clk_hier0_bF$buf14 clk_bF$buf228 BUFX4
XBUFX4_304 vdd gnd clk_hier0_bF$buf8 clk_bF$buf227 BUFX4
XBUFX4_305 vdd gnd clk_hier0_bF$buf12 clk_bF$buf226 BUFX4
XBUFX4_306 vdd gnd clk_hier0_bF$buf10 clk_bF$buf225 BUFX4
XBUFX4_307 vdd gnd clk_hier0_bF$buf7 clk_bF$buf224 BUFX4
XBUFX4_308 vdd gnd clk_hier0_bF$buf6 clk_bF$buf223 BUFX4
XBUFX4_309 vdd gnd clk_hier0_bF$buf15 clk_bF$buf222 BUFX4
XBUFX4_310 vdd gnd clk_hier0_bF$buf0 clk_bF$buf221 BUFX4
XBUFX4_311 vdd gnd clk_hier0_bF$buf2 clk_bF$buf220 BUFX4
XBUFX4_312 vdd gnd clk_hier0_bF$buf11 clk_bF$buf219 BUFX4
XBUFX4_313 vdd gnd clk_hier0_bF$buf13 clk_bF$buf218 BUFX4
XBUFX4_314 vdd gnd clk_hier0_bF$buf10 clk_bF$buf217 BUFX4
XBUFX4_315 vdd gnd clk_hier0_bF$buf3 clk_bF$buf216 BUFX4
XBUFX4_316 vdd gnd clk_hier0_bF$buf13 clk_bF$buf215 BUFX4
XBUFX4_317 vdd gnd clk_hier0_bF$buf2 clk_bF$buf214 BUFX4
XBUFX4_318 vdd gnd clk_hier0_bF$buf3 clk_bF$buf213 BUFX4
XBUFX4_319 vdd gnd clk_hier0_bF$buf5 clk_bF$buf212 BUFX4
XBUFX4_320 vdd gnd clk_hier0_bF$buf1 clk_bF$buf211 BUFX4
XBUFX4_321 vdd gnd clk_hier0_bF$buf10 clk_bF$buf210 BUFX4
XBUFX4_322 vdd gnd clk_hier0_bF$buf6 clk_bF$buf209 BUFX4
XBUFX4_323 vdd gnd clk_hier0_bF$buf7 clk_bF$buf208 BUFX4
XBUFX4_324 vdd gnd clk_hier0_bF$buf3 clk_bF$buf207 BUFX4
XBUFX4_325 vdd gnd clk_hier0_bF$buf9 clk_bF$buf206 BUFX4
XBUFX4_326 vdd gnd clk_hier0_bF$buf9 clk_bF$buf205 BUFX4
XBUFX4_327 vdd gnd clk_hier0_bF$buf8 clk_bF$buf204 BUFX4
XBUFX4_328 vdd gnd clk_hier0_bF$buf1 clk_bF$buf203 BUFX4
XBUFX4_329 vdd gnd clk_hier0_bF$buf11 clk_bF$buf202 BUFX4
XBUFX4_330 vdd gnd clk_hier0_bF$buf7 clk_bF$buf201 BUFX4
XBUFX4_331 vdd gnd clk_hier0_bF$buf1 clk_bF$buf200 BUFX4
XBUFX4_332 vdd gnd clk_hier0_bF$buf6 clk_bF$buf199 BUFX4
XBUFX4_333 vdd gnd clk_hier0_bF$buf12 clk_bF$buf198 BUFX4
XBUFX4_334 vdd gnd clk_hier0_bF$buf3 clk_bF$buf197 BUFX4
XBUFX4_335 vdd gnd clk_hier0_bF$buf9 clk_bF$buf196 BUFX4
XBUFX4_336 vdd gnd clk_hier0_bF$buf0 clk_bF$buf195 BUFX4
XBUFX4_337 vdd gnd clk_hier0_bF$buf11 clk_bF$buf194 BUFX4
XBUFX4_338 vdd gnd clk_hier0_bF$buf12 clk_bF$buf193 BUFX4
XBUFX4_339 vdd gnd clk_hier0_bF$buf9 clk_bF$buf192 BUFX4
XBUFX4_340 vdd gnd clk_hier0_bF$buf9 clk_bF$buf191 BUFX4
XBUFX4_341 vdd gnd clk_hier0_bF$buf11 clk_bF$buf190 BUFX4
XBUFX4_342 vdd gnd clk_hier0_bF$buf7 clk_bF$buf189 BUFX4
XBUFX4_343 vdd gnd clk_hier0_bF$buf3 clk_bF$buf188 BUFX4
XBUFX4_344 vdd gnd clk_hier0_bF$buf9 clk_bF$buf187 BUFX4
XBUFX4_345 vdd gnd clk_hier0_bF$buf5 clk_bF$buf186 BUFX4
XBUFX4_346 vdd gnd clk_hier0_bF$buf15 clk_bF$buf185 BUFX4
XBUFX4_347 vdd gnd clk_hier0_bF$buf11 clk_bF$buf184 BUFX4
XBUFX4_348 vdd gnd clk_hier0_bF$buf8 clk_bF$buf183 BUFX4
XBUFX4_349 vdd gnd clk_hier0_bF$buf2 clk_bF$buf182 BUFX4
XBUFX4_350 vdd gnd clk_hier0_bF$buf12 clk_bF$buf181 BUFX4
XBUFX4_351 vdd gnd clk_hier0_bF$buf15 clk_bF$buf180 BUFX4
XBUFX4_352 vdd gnd clk_hier0_bF$buf12 clk_bF$buf179 BUFX4
XBUFX4_353 vdd gnd clk_hier0_bF$buf5 clk_bF$buf178 BUFX4
XBUFX4_354 vdd gnd clk_hier0_bF$buf4 clk_bF$buf177 BUFX4
XBUFX4_355 vdd gnd clk_hier0_bF$buf11 clk_bF$buf176 BUFX4
XBUFX4_356 vdd gnd clk_hier0_bF$buf14 clk_bF$buf175 BUFX4
XBUFX4_357 vdd gnd clk_hier0_bF$buf10 clk_bF$buf174 BUFX4
XBUFX4_358 vdd gnd clk_hier0_bF$buf8 clk_bF$buf173 BUFX4
XBUFX4_359 vdd gnd clk_hier0_bF$buf12 clk_bF$buf172 BUFX4
XBUFX4_360 vdd gnd clk_hier0_bF$buf9 clk_bF$buf171 BUFX4
XBUFX4_361 vdd gnd clk_hier0_bF$buf15 clk_bF$buf170 BUFX4
XBUFX4_362 vdd gnd clk_hier0_bF$buf9 clk_bF$buf169 BUFX4
XBUFX4_363 vdd gnd clk_hier0_bF$buf7 clk_bF$buf168 BUFX4
XBUFX4_364 vdd gnd clk_hier0_bF$buf7 clk_bF$buf167 BUFX4
XBUFX4_365 vdd gnd clk_hier0_bF$buf0 clk_bF$buf166 BUFX4
XBUFX4_366 vdd gnd clk_hier0_bF$buf13 clk_bF$buf165 BUFX4
XBUFX4_367 vdd gnd clk_hier0_bF$buf4 clk_bF$buf164 BUFX4
XBUFX4_368 vdd gnd clk_hier0_bF$buf2 clk_bF$buf163 BUFX4
XBUFX4_369 vdd gnd clk_hier0_bF$buf15 clk_bF$buf162 BUFX4
XBUFX4_370 vdd gnd clk_hier0_bF$buf1 clk_bF$buf161 BUFX4
XBUFX4_371 vdd gnd clk_hier0_bF$buf12 clk_bF$buf160 BUFX4
XBUFX4_372 vdd gnd clk_hier0_bF$buf5 clk_bF$buf159 BUFX4
XBUFX4_373 vdd gnd clk_hier0_bF$buf0 clk_bF$buf158 BUFX4
XBUFX4_374 vdd gnd clk_hier0_bF$buf11 clk_bF$buf157 BUFX4
XBUFX4_375 vdd gnd clk_hier0_bF$buf10 clk_bF$buf156 BUFX4
XBUFX4_376 vdd gnd clk_hier0_bF$buf4 clk_bF$buf155 BUFX4
XBUFX4_377 vdd gnd clk_hier0_bF$buf12 clk_bF$buf154 BUFX4
XBUFX4_378 vdd gnd clk_hier0_bF$buf3 clk_bF$buf153 BUFX4
XBUFX4_379 vdd gnd clk_hier0_bF$buf13 clk_bF$buf152 BUFX4
XBUFX4_380 vdd gnd clk_hier0_bF$buf2 clk_bF$buf151 BUFX4
XBUFX4_381 vdd gnd clk_hier0_bF$buf8 clk_bF$buf150 BUFX4
XBUFX4_382 vdd gnd clk_hier0_bF$buf3 clk_bF$buf149 BUFX4
XBUFX4_383 vdd gnd clk_hier0_bF$buf0 clk_bF$buf148 BUFX4
XBUFX4_384 vdd gnd clk_hier0_bF$buf0 clk_bF$buf147 BUFX4
XBUFX4_385 vdd gnd clk_hier0_bF$buf11 clk_bF$buf146 BUFX4
XBUFX4_386 vdd gnd clk_hier0_bF$buf9 clk_bF$buf145 BUFX4
XBUFX4_387 vdd gnd clk_hier0_bF$buf2 clk_bF$buf144 BUFX4
XBUFX4_388 vdd gnd clk_hier0_bF$buf11 clk_bF$buf143 BUFX4
XBUFX4_389 vdd gnd clk_hier0_bF$buf3 clk_bF$buf142 BUFX4
XBUFX4_390 vdd gnd clk_hier0_bF$buf1 clk_bF$buf141 BUFX4
XBUFX4_391 vdd gnd clk_hier0_bF$buf14 clk_bF$buf140 BUFX4
XBUFX4_392 vdd gnd clk_hier0_bF$buf10 clk_bF$buf139 BUFX4
XBUFX4_393 vdd gnd clk_hier0_bF$buf15 clk_bF$buf138 BUFX4
XBUFX4_394 vdd gnd clk_hier0_bF$buf6 clk_bF$buf137 BUFX4
XBUFX4_395 vdd gnd clk_hier0_bF$buf2 clk_bF$buf136 BUFX4
XBUFX4_396 vdd gnd clk_hier0_bF$buf2 clk_bF$buf135 BUFX4
XBUFX4_397 vdd gnd clk_hier0_bF$buf10 clk_bF$buf134 BUFX4
XBUFX4_398 vdd gnd clk_hier0_bF$buf14 clk_bF$buf133 BUFX4
XBUFX4_399 vdd gnd clk_hier0_bF$buf5 clk_bF$buf132 BUFX4
XBUFX4_400 vdd gnd clk_hier0_bF$buf9 clk_bF$buf131 BUFX4
XBUFX4_401 vdd gnd clk_hier0_bF$buf5 clk_bF$buf130 BUFX4
XBUFX4_402 vdd gnd clk_hier0_bF$buf15 clk_bF$buf129 BUFX4
XBUFX4_403 vdd gnd clk_hier0_bF$buf9 clk_bF$buf128 BUFX4
XBUFX4_404 vdd gnd clk_hier0_bF$buf7 clk_bF$buf127 BUFX4
XBUFX4_405 vdd gnd clk_hier0_bF$buf1 clk_bF$buf126 BUFX4
XBUFX4_406 vdd gnd clk_hier0_bF$buf6 clk_bF$buf125 BUFX4
XBUFX4_407 vdd gnd clk_hier0_bF$buf13 clk_bF$buf124 BUFX4
XBUFX4_408 vdd gnd clk_hier0_bF$buf8 clk_bF$buf123 BUFX4
XBUFX4_409 vdd gnd clk_hier0_bF$buf14 clk_bF$buf122 BUFX4
XBUFX4_410 vdd gnd clk_hier0_bF$buf11 clk_bF$buf121 BUFX4
XBUFX4_411 vdd gnd clk_hier0_bF$buf14 clk_bF$buf120 BUFX4
XBUFX4_412 vdd gnd clk_hier0_bF$buf11 clk_bF$buf119 BUFX4
XBUFX4_413 vdd gnd clk_hier0_bF$buf4 clk_bF$buf118 BUFX4
XBUFX4_414 vdd gnd clk_hier0_bF$buf4 clk_bF$buf117 BUFX4
XBUFX4_415 vdd gnd clk_hier0_bF$buf8 clk_bF$buf116 BUFX4
XBUFX4_416 vdd gnd clk_hier0_bF$buf6 clk_bF$buf115 BUFX4
XBUFX4_417 vdd gnd clk_hier0_bF$buf4 clk_bF$buf114 BUFX4
XBUFX4_418 vdd gnd clk_hier0_bF$buf13 clk_bF$buf113 BUFX4
XBUFX4_419 vdd gnd clk_hier0_bF$buf4 clk_bF$buf112 BUFX4
XBUFX4_420 vdd gnd clk_hier0_bF$buf1 clk_bF$buf111 BUFX4
XBUFX4_421 vdd gnd clk_hier0_bF$buf12 clk_bF$buf110 BUFX4
XBUFX4_422 vdd gnd clk_hier0_bF$buf1 clk_bF$buf109 BUFX4
XBUFX4_423 vdd gnd clk_hier0_bF$buf8 clk_bF$buf108 BUFX4
XBUFX4_424 vdd gnd clk_hier0_bF$buf14 clk_bF$buf107 BUFX4
XBUFX4_425 vdd gnd clk_hier0_bF$buf0 clk_bF$buf106 BUFX4
XBUFX4_426 vdd gnd clk_hier0_bF$buf1 clk_bF$buf105 BUFX4
XBUFX4_427 vdd gnd clk_hier0_bF$buf6 clk_bF$buf104 BUFX4
XBUFX4_428 vdd gnd clk_hier0_bF$buf12 clk_bF$buf103 BUFX4
XBUFX4_429 vdd gnd clk_hier0_bF$buf15 clk_bF$buf102 BUFX4
XBUFX4_430 vdd gnd clk_hier0_bF$buf4 clk_bF$buf101 BUFX4
XBUFX4_431 vdd gnd clk_hier0_bF$buf10 clk_bF$buf100 BUFX4
XBUFX4_432 vdd gnd clk_hier0_bF$buf4 clk_bF$buf99 BUFX4
XBUFX4_433 vdd gnd clk_hier0_bF$buf3 clk_bF$buf98 BUFX4
XBUFX4_434 vdd gnd clk_hier0_bF$buf14 clk_bF$buf97 BUFX4
XBUFX4_435 vdd gnd clk_hier0_bF$buf0 clk_bF$buf96 BUFX4
XBUFX4_436 vdd gnd clk_hier0_bF$buf0 clk_bF$buf95 BUFX4
XBUFX4_437 vdd gnd clk_hier0_bF$buf14 clk_bF$buf94 BUFX4
XBUFX4_438 vdd gnd clk_hier0_bF$buf0 clk_bF$buf93 BUFX4
XBUFX4_439 vdd gnd clk_hier0_bF$buf1 clk_bF$buf92 BUFX4
XBUFX4_440 vdd gnd clk_hier0_bF$buf2 clk_bF$buf91 BUFX4
XBUFX4_441 vdd gnd clk_hier0_bF$buf3 clk_bF$buf90 BUFX4
XBUFX4_442 vdd gnd clk_hier0_bF$buf13 clk_bF$buf89 BUFX4
XBUFX4_443 vdd gnd clk_hier0_bF$buf4 clk_bF$buf88 BUFX4
XBUFX4_444 vdd gnd clk_hier0_bF$buf9 clk_bF$buf87 BUFX4
XBUFX4_445 vdd gnd clk_hier0_bF$buf13 clk_bF$buf86 BUFX4
XBUFX4_446 vdd gnd clk_hier0_bF$buf14 clk_bF$buf85 BUFX4
XBUFX4_447 vdd gnd clk_hier0_bF$buf10 clk_bF$buf84 BUFX4
XBUFX4_448 vdd gnd clk_hier0_bF$buf0 clk_bF$buf83 BUFX4
XBUFX4_449 vdd gnd clk_hier0_bF$buf8 clk_bF$buf82 BUFX4
XBUFX4_450 vdd gnd clk_hier0_bF$buf12 clk_bF$buf81 BUFX4
XBUFX4_451 vdd gnd clk_hier0_bF$buf14 clk_bF$buf80 BUFX4
XBUFX4_452 vdd gnd clk_hier0_bF$buf15 clk_bF$buf79 BUFX4
XBUFX4_453 vdd gnd clk_hier0_bF$buf13 clk_bF$buf78 BUFX4
XBUFX4_454 vdd gnd clk_hier0_bF$buf6 clk_bF$buf77 BUFX4
XBUFX4_455 vdd gnd clk_hier0_bF$buf6 clk_bF$buf76 BUFX4
XBUFX4_456 vdd gnd clk_hier0_bF$buf14 clk_bF$buf75 BUFX4
XBUFX4_457 vdd gnd clk_hier0_bF$buf10 clk_bF$buf74 BUFX4
XBUFX4_458 vdd gnd clk_hier0_bF$buf8 clk_bF$buf73 BUFX4
XBUFX4_459 vdd gnd clk_hier0_bF$buf1 clk_bF$buf72 BUFX4
XBUFX4_460 vdd gnd clk_hier0_bF$buf15 clk_bF$buf71 BUFX4
XBUFX4_461 vdd gnd clk_hier0_bF$buf12 clk_bF$buf70 BUFX4
XBUFX4_462 vdd gnd clk_hier0_bF$buf11 clk_bF$buf69 BUFX4
XBUFX4_463 vdd gnd clk_hier0_bF$buf2 clk_bF$buf68 BUFX4
XBUFX4_464 vdd gnd clk_hier0_bF$buf3 clk_bF$buf67 BUFX4
XBUFX4_465 vdd gnd clk_hier0_bF$buf14 clk_bF$buf66 BUFX4
XBUFX4_466 vdd gnd clk_hier0_bF$buf6 clk_bF$buf65 BUFX4
XBUFX4_467 vdd gnd clk_hier0_bF$buf6 clk_bF$buf64 BUFX4
XBUFX4_468 vdd gnd clk_hier0_bF$buf5 clk_bF$buf63 BUFX4
XBUFX4_469 vdd gnd clk_hier0_bF$buf1 clk_bF$buf62 BUFX4
XBUFX4_470 vdd gnd clk_hier0_bF$buf0 clk_bF$buf61 BUFX4
XBUFX4_471 vdd gnd clk_hier0_bF$buf10 clk_bF$buf60 BUFX4
XBUFX4_472 vdd gnd clk_hier0_bF$buf6 clk_bF$buf59 BUFX4
XBUFX4_473 vdd gnd clk_hier0_bF$buf8 clk_bF$buf58 BUFX4
XBUFX4_474 vdd gnd clk_hier0_bF$buf2 clk_bF$buf57 BUFX4
XBUFX4_475 vdd gnd clk_hier0_bF$buf8 clk_bF$buf56 BUFX4
XBUFX4_476 vdd gnd clk_hier0_bF$buf3 clk_bF$buf55 BUFX4
XBUFX4_477 vdd gnd clk_hier0_bF$buf12 clk_bF$buf54 BUFX4
XBUFX4_478 vdd gnd clk_hier0_bF$buf6 clk_bF$buf53 BUFX4
XBUFX4_479 vdd gnd clk_hier0_bF$buf15 clk_bF$buf52 BUFX4
XBUFX4_480 vdd gnd clk_hier0_bF$buf8 clk_bF$buf51 BUFX4
XBUFX4_481 vdd gnd clk_hier0_bF$buf3 clk_bF$buf50 BUFX4
XBUFX4_482 vdd gnd clk_hier0_bF$buf14 clk_bF$buf49 BUFX4
XBUFX4_483 vdd gnd clk_hier0_bF$buf13 clk_bF$buf48 BUFX4
XBUFX4_484 vdd gnd clk_hier0_bF$buf7 clk_bF$buf47 BUFX4
XBUFX4_485 vdd gnd clk_hier0_bF$buf15 clk_bF$buf46 BUFX4
XBUFX4_486 vdd gnd clk_hier0_bF$buf6 clk_bF$buf45 BUFX4
XBUFX4_487 vdd gnd clk_hier0_bF$buf5 clk_bF$buf44 BUFX4
XBUFX4_488 vdd gnd clk_hier0_bF$buf5 clk_bF$buf43 BUFX4
XBUFX4_489 vdd gnd clk_hier0_bF$buf1 clk_bF$buf42 BUFX4
XBUFX4_490 vdd gnd clk_hier0_bF$buf10 clk_bF$buf41 BUFX4
XBUFX4_491 vdd gnd clk_hier0_bF$buf4 clk_bF$buf40 BUFX4
XBUFX4_492 vdd gnd clk_hier0_bF$buf10 clk_bF$buf39 BUFX4
XBUFX4_493 vdd gnd clk_hier0_bF$buf12 clk_bF$buf38 BUFX4
XBUFX4_494 vdd gnd clk_hier0_bF$buf4 clk_bF$buf37 BUFX4
XBUFX4_495 vdd gnd clk_hier0_bF$buf9 clk_bF$buf36 BUFX4
XBUFX4_496 vdd gnd clk_hier0_bF$buf2 clk_bF$buf35 BUFX4
XBUFX4_497 vdd gnd clk_hier0_bF$buf4 clk_bF$buf34 BUFX4
XBUFX4_498 vdd gnd clk_hier0_bF$buf2 clk_bF$buf33 BUFX4
XBUFX4_499 vdd gnd clk_hier0_bF$buf13 clk_bF$buf32 BUFX4
XBUFX4_500 vdd gnd clk_hier0_bF$buf11 clk_bF$buf31 BUFX4
XBUFX4_501 vdd gnd clk_hier0_bF$buf8 clk_bF$buf30 BUFX4
XBUFX4_502 vdd gnd clk_hier0_bF$buf11 clk_bF$buf29 BUFX4
XBUFX4_503 vdd gnd clk_hier0_bF$buf6 clk_bF$buf28 BUFX4
XBUFX4_504 vdd gnd clk_hier0_bF$buf7 clk_bF$buf27 BUFX4
XBUFX4_505 vdd gnd clk_hier0_bF$buf0 clk_bF$buf26 BUFX4
XBUFX4_506 vdd gnd clk_hier0_bF$buf3 clk_bF$buf25 BUFX4
XBUFX4_507 vdd gnd clk_hier0_bF$buf9 clk_bF$buf24 BUFX4
XBUFX4_508 vdd gnd clk_hier0_bF$buf10 clk_bF$buf23 BUFX4
XBUFX4_509 vdd gnd clk_hier0_bF$buf8 clk_bF$buf22 BUFX4
XBUFX4_510 vdd gnd clk_hier0_bF$buf14 clk_bF$buf21 BUFX4
XBUFX4_511 vdd gnd clk_hier0_bF$buf15 clk_bF$buf20 BUFX4
XBUFX4_512 vdd gnd clk_hier0_bF$buf9 clk_bF$buf19 BUFX4
XBUFX4_513 vdd gnd clk_hier0_bF$buf11 clk_bF$buf18 BUFX4
XBUFX4_514 vdd gnd clk_hier0_bF$buf12 clk_bF$buf17 BUFX4
XBUFX4_515 vdd gnd clk_hier0_bF$buf13 clk_bF$buf16 BUFX4
XBUFX4_516 vdd gnd clk_hier0_bF$buf7 clk_bF$buf15 BUFX4